/*---------------------------------------------------------------------------*\
| =========                 |                                                 |
| \\      /  F ield         | OpenFOAM: The Open Source CFD Toolbox           |
|  \\    /   O peration     | Version:  5.x                                   |
|   \\  /    A nd           | Web:      www.OpenFOAM.org                      |
|    \\/     M anipulation  |                                                 |
\*---------------------------------------------------------------------------*/
Build  : 5.x-7f7d351b741b
Exec   : simpleFoam -case Exeter_CFD_Problems/data/PitzDaily/case_single/
Date   : Aug 09 2019
Time   : 14:32:40
Host   : "ennui"
PID    : 22467
I/O    : uncollated
Case   : Exeter_CFD_Problems/data/PitzDaily/case_single
nProcs : 1
sigFpe : Enabling floating point exception trapping (FOAM_SIGFPE).
fileModificationChecking : Monitoring run-time modified files using timeStampMaster (fileModificationSkew 10)
allowSystemOperations : Allowing user-supplied system call operations

// * * * * * * * * * * * * * * * * * * * * * * * * * * * * * * * * * * * * * //
Create time

Create mesh for time = 0


SIMPLE: convergence criteria
    field p	 tolerance 1e-06
    field U	 tolerance 1e-05

Reading field p

Reading field U

Reading/calculating face flux field phi

Selecting incompressible transport model Newtonian
Selecting turbulence model type RAS
Selecting RAS turbulence model kEpsilon
RAS
{
    RASModel        kEpsilon;
    turbulence      on;
    printCoeffs     on;
    Cmu             0.09;
    C1              1.44;
    C2              1.92;
    C3              0;
    sigmak          1;
    sigmaEps        1.3;
}

No MRF models present

No finite volume options present


Starting time loop

Time = 1

smoothSolver:  Solving for Ux, Initial residual = 1, Final residual = 0.0230971286875, No Iterations 2
smoothSolver:  Solving for Uy, Initial residual = 1, Final residual = 0.041505866455, No Iterations 2
GAMG:  Solving for p, Initial residual = 1, Final residual = 0.00862659216174, No Iterations 36
time step continuity errors : sum local = 0.1610234924, global = -0.0284396384119, cumulative = -0.0284396384119
smoothSolver:  Solving for epsilon, Initial residual = 0.113452052148, Final residual = 0.00230301149998, No Iterations 4
smoothSolver:  Solving for k, Initial residual = 1, Final residual = 0.017160469738, No Iterations 4
ExecutionTime = 0.24 s  ClockTime = 0 s

Time = 2

smoothSolver:  Solving for Ux, Initial residual = 0.725504122339, Final residual = 0.0171223458353, No Iterations 4
smoothSolver:  Solving for Uy, Initial residual = 0.400128390562, Final residual = 0.0135719599519, No Iterations 4
GAMG:  Solving for p, Initial residual = 0.136581056598, Final residual = 0.00109074829692, No Iterations 25
time step continuity errors : sum local = 0.413999987275, global = -0.0489201558028, cumulative = -0.0773597942147
smoothSolver:  Solving for epsilon, Initial residual = 0.0957712045933, Final residual = 0.00196670475303, No Iterations 4
smoothSolver:  Solving for k, Initial residual = 0.502815527383, Final residual = 0.0105243133317, No Iterations 4
ExecutionTime = 0.32 s  ClockTime = 0 s

Time = 3

smoothSolver:  Solving for Ux, Initial residual = 0.759053940245, Final residual = 0.0152597235924, No Iterations 4
smoothSolver:  Solving for Uy, Initial residual = 0.308907121198, Final residual = 0.00827574863988, No Iterations 4
GAMG:  Solving for p, Initial residual = 0.0811535950642, Final residual = 0.000675928693775, No Iterations 32
time step continuity errors : sum local = 0.338085627549, global = 0.0393644059957, cumulative = -0.037995388219
smoothSolver:  Solving for epsilon, Initial residual = 0.0871567393709, Final residual = 0.00172077333698, No Iterations 4
smoothSolver:  Solving for k, Initial residual = 0.269150977294, Final residual = 0.00615663305219, No Iterations 4
ExecutionTime = 0.41 s  ClockTime = 0 s

Time = 4

smoothSolver:  Solving for Ux, Initial residual = 0.336722238988, Final residual = 0.00644007817991, No Iterations 4
smoothSolver:  Solving for Uy, Initial residual = 0.114207109822, Final residual = 0.00286425302189, No Iterations 4
GAMG:  Solving for p, Initial residual = 0.248215943473, Final residual = 0.00202056803809, No Iterations 32
time step continuity errors : sum local = 0.325184889504, global = 0.0439303367768, cumulative = 0.00593494855774
smoothSolver:  Solving for epsilon, Initial residual = 0.0519615708894, Final residual = 0.000726614407921, No Iterations 4
smoothSolver:  Solving for k, Initial residual = 0.141054091451, Final residual = 0.00315866149958, No Iterations 4
ExecutionTime = 0.5 s  ClockTime = 0 s

Time = 5

smoothSolver:  Solving for Ux, Initial residual = 0.444208195687, Final residual = 0.00925537327977, No Iterations 4
smoothSolver:  Solving for Uy, Initial residual = 0.160744050771, Final residual = 0.00408812578485, No Iterations 4
GAMG:  Solving for p, Initial residual = 0.206209760563, Final residual = 0.00206060860866, No Iterations 15
time step continuity errors : sum local = 0.62059788457, global = 0.126300289515, cumulative = 0.132235238073
smoothSolver:  Solving for epsilon, Initial residual = 0.0443308603705, Final residual = 0.0036224025513, No Iterations 2
smoothSolver:  Solving for k, Initial residual = 0.0965832252629, Final residual = 0.0016856216562, No Iterations 4
ExecutionTime = 0.55 s  ClockTime = 0 s

Time = 6

smoothSolver:  Solving for Ux, Initial residual = 0.595203617553, Final residual = 0.0118971597272, No Iterations 4
smoothSolver:  Solving for Uy, Initial residual = 0.228066826352, Final residual = 0.00605313425855, No Iterations 4
GAMG:  Solving for p, Initial residual = 0.122237877363, Final residual = 0.00106196559924, No Iterations 28
time step continuity errors : sum local = 0.328883889905, global = -0.0446642443358, cumulative = 0.087570993737
smoothSolver:  Solving for epsilon, Initial residual = 0.0343342610533, Final residual = 0.0032425827303, No Iterations 2
smoothSolver:  Solving for k, Initial residual = 0.0790300474509, Final residual = 0.00125966909411, No Iterations 4
ExecutionTime = 0.63 s  ClockTime = 0 s

Time = 7

smoothSolver:  Solving for Ux, Initial residual = 0.156636839143, Final residual = 0.00277065791136, No Iterations 4
smoothSolver:  Solving for Uy, Initial residual = 0.18287816958, Final residual = 0.00433860586738, No Iterations 4
GAMG:  Solving for p, Initial residual = 0.651501271277, Final residual = 0.00638886728909, No Iterations 26
time step continuity errors : sum local = 0.414800067139, global = -0.0596693571416, cumulative = 0.0279016365954
smoothSolver:  Solving for epsilon, Initial residual = 0.0352878582998, Final residual = 0.0027472027944, No Iterations 2
smoothSolver:  Solving for k, Initial residual = 0.0628974044546, Final residual = 0.00113095382142, No Iterations 4
ExecutionTime = 0.72 s  ClockTime = 1 s

Time = 8

smoothSolver:  Solving for Ux, Initial residual = 0.466231549973, Final residual = 0.00961134160853, No Iterations 4
smoothSolver:  Solving for Uy, Initial residual = 0.148223451985, Final residual = 0.00361504454331, No Iterations 4
GAMG:  Solving for p, Initial residual = 0.222555072914, Final residual = 0.001941218407, No Iterations 14
time step continuity errors : sum local = 0.427131402215, global = 0.0342279752317, cumulative = 0.062129611827
smoothSolver:  Solving for epsilon, Initial residual = 0.0304582115556, Final residual = 0.00252216698368, No Iterations 2
smoothSolver:  Solving for k, Initial residual = 0.0610176010433, Final residual = 0.00116229862308, No Iterations 4
ExecutionTime = 0.77 s  ClockTime = 1 s

Time = 9

smoothSolver:  Solving for Ux, Initial residual = 0.38519535357, Final residual = 0.00771750010263, No Iterations 4
smoothSolver:  Solving for Uy, Initial residual = 0.129071476547, Final residual = 0.00347085308655, No Iterations 4
GAMG:  Solving for p, Initial residual = 0.136890999749, Final residual = 0.00115748337858, No Iterations 30
time step continuity errors : sum local = 0.200622058237, global = 0.022897935259, cumulative = 0.0850275470861
smoothSolver:  Solving for epsilon, Initial residual = 0.0233555062937, Final residual = 0.00226695913682, No Iterations 2
smoothSolver:  Solving for k, Initial residual = 0.0602802169055, Final residual = 0.00122864782468, No Iterations 4
ExecutionTime = 0.86 s  ClockTime = 1 s

Time = 10

smoothSolver:  Solving for Ux, Initial residual = 0.045806717684, Final residual = 0.000833405325685, No Iterations 4
smoothSolver:  Solving for Uy, Initial residual = 0.123509304434, Final residual = 0.00281895278676, No Iterations 4
GAMG:  Solving for p, Initial residual = 0.661547654181, Final residual = 0.00637813071006, No Iterations 24
time step continuity errors : sum local = 0.351339341341, global = 0.0412209656699, cumulative = 0.126248512756
smoothSolver:  Solving for epsilon, Initial residual = 0.0215031609174, Final residual = 0.00201577102026, No Iterations 2
smoothSolver:  Solving for k, Initial residual = 0.0556547315412, Final residual = 0.00115362857412, No Iterations 4
ExecutionTime = 0.93 s  ClockTime = 1 s

Time = 11

smoothSolver:  Solving for Ux, Initial residual = 0.272329990893, Final residual = 0.00544934921374, No Iterations 4
smoothSolver:  Solving for Uy, Initial residual = 0.0902079196883, Final residual = 0.00211989556476, No Iterations 4
GAMG:  Solving for p, Initial residual = 0.25270785814, Final residual = 0.00247941711354, No Iterations 17
time step continuity errors : sum local = 0.353324301805, global = 0.0555434913936, cumulative = 0.18179200415
smoothSolver:  Solving for epsilon, Initial residual = 0.0188040577483, Final residual = 0.00181654397357, No Iterations 2
smoothSolver:  Solving for k, Initial residual = 0.0523500869817, Final residual = 0.00107729970489, No Iterations 4
ExecutionTime = 0.99 s  ClockTime = 1 s

Time = 12

smoothSolver:  Solving for Ux, Initial residual = 0.203819208018, Final residual = 0.00393872578136, No Iterations 4
smoothSolver:  Solving for Uy, Initial residual = 0.114175795522, Final residual = 0.00288478270279, No Iterations 4
GAMG:  Solving for p, Initial residual = 0.213930146136, Final residual = 0.00167581141739, No Iterations 28
time step continuity errors : sum local = 0.151149729604, global = -0.015916830141, cumulative = 0.165875174009
smoothSolver:  Solving for epsilon, Initial residual = 0.0166162694424, Final residual = 0.00158842561009, No Iterations 2
smoothSolver:  Solving for k, Initial residual = 0.0496944950733, Final residual = 0.0010167435827, No Iterations 4
ExecutionTime = 1.07 s  ClockTime = 1 s

Time = 13

smoothSolver:  Solving for Ux, Initial residual = 0.0832322268488, Final residual = 0.0016430176138, No Iterations 4
smoothSolver:  Solving for Uy, Initial residual = 0.104409487255, Final residual = 0.00239899635975, No Iterations 4
GAMG:  Solving for p, Initial residual = 0.471489659107, Final residual = 0.00435129955659, No Iterations 20
time step continuity errors : sum local = 0.267820920551, global = -0.0320145168503, cumulative = 0.133860657158
smoothSolver:  Solving for epsilon, Initial residual = 0.0177490992938, Final residual = 0.00167036397787, No Iterations 2
smoothSolver:  Solving for k, Initial residual = 0.047352735478, Final residual = 0.00103496140242, No Iterations 4
ExecutionTime = 1.14 s  ClockTime = 1 s

Time = 14

smoothSolver:  Solving for Ux, Initial residual = 0.195902670828, Final residual = 0.00397546559258, No Iterations 4
smoothSolver:  Solving for Uy, Initial residual = 0.0605111919578, Final residual = 0.00140764519613, No Iterations 4
GAMG:  Solving for p, Initial residual = 0.245967367312, Final residual = 0.00239886890496, No Iterations 18
time step continuity errors : sum local = 0.228766177352, global = 0.0287749623072, cumulative = 0.162635619466
smoothSolver:  Solving for epsilon, Initial residual = 0.0172845959343, Final residual = 0.00172409897106, No Iterations 2
smoothSolver:  Solving for k, Initial residual = 0.0463600357713, Final residual = 0.00103892249987, No Iterations 4
ExecutionTime = 1.2 s  ClockTime = 1 s

Time = 15

smoothSolver:  Solving for Ux, Initial residual = 0.0942256462636, Final residual = 0.00188949470226, No Iterations 4
smoothSolver:  Solving for Uy, Initial residual = 0.0885032684144, Final residual = 0.00201669771169, No Iterations 4
GAMG:  Solving for p, Initial residual = 0.282562715258, Final residual = 0.00227144108317, No Iterations 26
time step continuity errors : sum local = 0.121906026851, global = 0.0140147375988, cumulative = 0.176650357064
smoothSolver:  Solving for epsilon, Initial residual = 0.0172416129296, Final residual = 0.00162712804775, No Iterations 2
smoothSolver:  Solving for k, Initial residual = 0.0437294559088, Final residual = 0.000995348043096, No Iterations 4
ExecutionTime = 1.28 s  ClockTime = 1 s

Time = 16

smoothSolver:  Solving for Ux, Initial residual = 0.0663321262092, Final residual = 0.00119071369271, No Iterations 4
smoothSolver:  Solving for Uy, Initial residual = 0.0724747698292, Final residual = 0.00163114959122, No Iterations 4
GAMG:  Solving for p, Initial residual = 0.463895124213, Final residual = 0.00384190429959, No Iterations 16
time step continuity errors : sum local = 0.178619178973, global = 0.0185719437526, cumulative = 0.195222300817
smoothSolver:  Solving for epsilon, Initial residual = 0.0158505213984, Final residual = 0.00022523438695, No Iterations 4
smoothSolver:  Solving for k, Initial residual = 0.0407716948552, Final residual = 0.000930431762067, No Iterations 4
ExecutionTime = 1.34 s  ClockTime = 1 s

Time = 17

smoothSolver:  Solving for Ux, Initial residual = 0.105043767852, Final residual = 0.00198867401497, No Iterations 4
smoothSolver:  Solving for Uy, Initial residual = 0.0421818666248, Final residual = 0.00103651076038, No Iterations 4
GAMG:  Solving for p, Initial residual = 0.271812444713, Final residual = 0.00222748226211, No Iterations 20
time step continuity errors : sum local = 0.123930425122, global = -0.0168813512103, cumulative = 0.178340949607
smoothSolver:  Solving for epsilon, Initial residual = 0.0145502176629, Final residual = 0.000217667687651, No Iterations 4
smoothSolver:  Solving for k, Initial residual = 0.0393557209734, Final residual = 0.000889163107444, No Iterations 4
ExecutionTime = 1.41 s  ClockTime = 1 s

Time = 18

smoothSolver:  Solving for Ux, Initial residual = 0.0360525521414, Final residual = 0.000593422504892, No Iterations 4
smoothSolver:  Solving for Uy, Initial residual = 0.0660603171967, Final residual = 0.00151783090737, No Iterations 4
GAMG:  Solving for p, Initial residual = 0.483664616154, Final residual = 0.00462751578153, No Iterations 22
time step continuity errors : sum local = 0.120106676085, global = -0.0149090281869, cumulative = 0.16343192142
smoothSolver:  Solving for epsilon, Initial residual = 0.0134443019624, Final residual = 0.000199438949084, No Iterations 4
smoothSolver:  Solving for k, Initial residual = 0.0373600806686, Final residual = 0.000861786526072, No Iterations 4
ExecutionTime = 1.48 s  ClockTime = 1 s

Time = 19

smoothSolver:  Solving for Ux, Initial residual = 0.0560081732216, Final residual = 0.00112054010578, No Iterations 4
smoothSolver:  Solving for Uy, Initial residual = 0.0438888264527, Final residual = 0.000928833994869, No Iterations 4
GAMG:  Solving for p, Initial residual = 0.384436073056, Final residual = 0.0031898222643, No Iterations 13
time step continuity errors : sum local = 0.126972957008, global = -0.0152165555958, cumulative = 0.148215365824
smoothSolver:  Solving for epsilon, Initial residual = 0.0130942859304, Final residual = 0.000207424527696, No Iterations 4
smoothSolver:  Solving for k, Initial residual = 0.0353548316785, Final residual = 0.00085019271252, No Iterations 4
ExecutionTime = 1.55 s  ClockTime = 1 s

Time = 20

smoothSolver:  Solving for Ux, Initial residual = 0.0624878555561, Final residual = 0.00127902494335, No Iterations 4
smoothSolver:  Solving for Uy, Initial residual = 0.0377473791075, Final residual = 0.000786000032237, No Iterations 4
GAMG:  Solving for p, Initial residual = 0.251777897124, Final residual = 0.00209734527287, No Iterations 20
time step continuity errors : sum local = 0.0808980751274, global = 0.0116656612824, cumulative = 0.159881027106
smoothSolver:  Solving for epsilon, Initial residual = 0.0124171624036, Final residual = 0.000208338448345, No Iterations 4
smoothSolver:  Solving for k, Initial residual = 0.0335312062464, Final residual = 0.000823756308373, No Iterations 4
ExecutionTime = 1.61 s  ClockTime = 1 s

Time = 21

smoothSolver:  Solving for Ux, Initial residual = 0.0157855407183, Final residual = 0.000323897242838, No Iterations 4
smoothSolver:  Solving for Uy, Initial residual = 0.0508331542779, Final residual = 0.0011352889419, No Iterations 4
GAMG:  Solving for p, Initial residual = 0.482368522406, Final residual = 0.00445991569228, No Iterations 20
time step continuity errors : sum local = 0.090977531177, global = 0.0119211950059, cumulative = 0.171802222112
smoothSolver:  Solving for epsilon, Initial residual = 0.0119056207794, Final residual = 0.000203512975289, No Iterations 4
smoothSolver:  Solving for k, Initial residual = 0.0316695630667, Final residual = 0.000784551297286, No Iterations 4
ExecutionTime = 1.68 s  ClockTime = 2 s

Time = 22

smoothSolver:  Solving for Ux, Initial residual = 0.0347492708774, Final residual = 0.000565180590127, No Iterations 4
smoothSolver:  Solving for Uy, Initial residual = 0.0282258149394, Final residual = 0.000619031409439, No Iterations 4
GAMG:  Solving for p, Initial residual = 0.440905164748, Final residual = 0.00356393744165, No Iterations 12
time step continuity errors : sum local = 0.0851819996024, global = -0.00733047438982, cumulative = 0.164471747722
smoothSolver:  Solving for epsilon, Initial residual = 0.011908499226, Final residual = 0.000204292838785, No Iterations 4
smoothSolver:  Solving for k, Initial residual = 0.0303641768594, Final residual = 0.000752506700196, No Iterations 4
ExecutionTime = 1.73 s  ClockTime = 2 s

Time = 23

smoothSolver:  Solving for Ux, Initial residual = 0.0310031055797, Final residual = 0.000505200713454, No Iterations 4
smoothSolver:  Solving for Uy, Initial residual = 0.0281616169041, Final residual = 0.000644942912238, No Iterations 4
GAMG:  Solving for p, Initial residual = 0.331438727712, Final residual = 0.00258368186991, No Iterations 20
time step continuity errors : sum local = 0.0515672538455, global = -0.00795331741718, cumulative = 0.156518430305
smoothSolver:  Solving for epsilon, Initial residual = 0.0116007701549, Final residual = 0.000201559055584, No Iterations 4
smoothSolver:  Solving for k, Initial residual = 0.0291625959389, Final residual = 0.000728036676822, No Iterations 4
ExecutionTime = 1.81 s  ClockTime = 2 s

Time = 24

smoothSolver:  Solving for Ux, Initial residual = 0.0123257503479, Final residual = 0.000239993573194, No Iterations 4
smoothSolver:  Solving for Uy, Initial residual = 0.0332103365009, Final residual = 0.000724259251604, No Iterations 4
GAMG:  Solving for p, Initial residual = 0.500241113495, Final residual = 0.00408365353915, No Iterations 18
time step continuity errors : sum local = 0.062252890869, global = -0.00863933589467, cumulative = 0.147879094411
smoothSolver:  Solving for epsilon, Initial residual = 0.0111768999694, Final residual = 0.000194952739064, No Iterations 4
smoothSolver:  Solving for k, Initial residual = 0.0277725094672, Final residual = 0.00070602163067, No Iterations 4
ExecutionTime = 1.87 s  ClockTime = 2 s

Time = 25

smoothSolver:  Solving for Ux, Initial residual = 0.0256801191003, Final residual = 0.000537311712716, No Iterations 4
smoothSolver:  Solving for Uy, Initial residual = 0.0186726930657, Final residual = 0.000356329996175, No Iterations 4
GAMG:  Solving for p, Initial residual = 0.329977906712, Final residual = 0.00326929826574, No Iterations 13
time step continuity errors : sum local = 0.0716611062026, global = -0.0124059660287, cumulative = 0.135473128382
smoothSolver:  Solving for epsilon, Initial residual = 0.0107806218892, Final residual = 0.00019414297051, No Iterations 4
smoothSolver:  Solving for k, Initial residual = 0.0263530503949, Final residual = 0.000682481175954, No Iterations 4
ExecutionTime = 1.92 s  ClockTime = 2 s

Time = 26

smoothSolver:  Solving for Ux, Initial residual = 0.0190111246264, Final residual = 0.000415348875627, No Iterations 4
smoothSolver:  Solving for Uy, Initial residual = 0.0258793953071, Final residual = 0.000553036520235, No Iterations 4
GAMG:  Solving for p, Initial residual = 0.275165932423, Final residual = 0.00211779271463, No Iterations 18
time step continuity errors : sum local = 0.0383611937462, global = 0.00640826922053, cumulative = 0.141881397602
smoothSolver:  Solving for epsilon, Initial residual = 0.0105256822327, Final residual = 0.000193257672554, No Iterations 4
smoothSolver:  Solving for k, Initial residual = 0.0250800831701, Final residual = 0.000656521219198, No Iterations 4
ExecutionTime = 1.99 s  ClockTime = 2 s

Time = 27

smoothSolver:  Solving for Ux, Initial residual = 0.010817179136, Final residual = 0.000195344853604, No Iterations 4
smoothSolver:  Solving for Uy, Initial residual = 0.0241072852217, Final residual = 0.000556320928328, No Iterations 4
GAMG:  Solving for p, Initial residual = 0.499138321697, Final residual = 0.00455289159067, No Iterations 14
time step continuity errors : sum local = 0.0528505633091, global = 0.00662455604261, cumulative = 0.148505953645
smoothSolver:  Solving for epsilon, Initial residual = 0.0114276462963, Final residual = 0.000194469230913, No Iterations 4
smoothSolver:  Solving for k, Initial residual = 0.0240996080938, Final residual = 0.00063295558125, No Iterations 4
ExecutionTime = 2.05 s  ClockTime = 2 s

Time = 28

smoothSolver:  Solving for Ux, Initial residual = 0.0151601012867, Final residual = 0.000231695671864, No Iterations 4
smoothSolver:  Solving for Uy, Initial residual = 0.013865219544, Final residual = 0.000309793062957, No Iterations 4
GAMG:  Solving for p, Initial residual = 0.445140751611, Final residual = 0.00348746452667, No Iterations 14
time step continuity errors : sum local = 0.039476418267, global = -0.00472608127141, cumulative = 0.143779872374
smoothSolver:  Solving for epsilon, Initial residual = 0.0109180998364, Final residual = 0.000194578305449, No Iterations 4
smoothSolver:  Solving for k, Initial residual = 0.0232372149652, Final residual = 0.000612457732177, No Iterations 4
ExecutionTime = 2.11 s  ClockTime = 2 s

Time = 29

smoothSolver:  Solving for Ux, Initial residual = 0.0101319311406, Final residual = 0.000175906608848, No Iterations 4
smoothSolver:  Solving for Uy, Initial residual = 0.0190624744444, Final residual = 0.000433707076926, No Iterations 4
GAMG:  Solving for p, Initial residual = 0.446525648889, Final residual = 0.00363539358941, No Iterations 16
time step continuity errors : sum local = 0.0325370663938, global = -0.00584694761897, cumulative = 0.137932924755
smoothSolver:  Solving for epsilon, Initial residual = 0.0113522408647, Final residual = 0.000192443819801, No Iterations 4
smoothSolver:  Solving for k, Initial residual = 0.0222885130724, Final residual = 0.000591995579317, No Iterations 4
ExecutionTime = 2.17 s  ClockTime = 2 s

Time = 30

smoothSolver:  Solving for Ux, Initial residual = 0.0105500137076, Final residual = 0.000232026705208, No Iterations 4
smoothSolver:  Solving for Uy, Initial residual = 0.0174964014866, Final residual = 0.000396373518351, No Iterations 4
GAMG:  Solving for p, Initial residual = 0.337851869662, Final residual = 0.00334651699654, No Iterations 12
time step continuity errors : sum local = 0.0435539018219, global = -0.00597216856503, cumulative = 0.13196075619
smoothSolver:  Solving for epsilon, Initial residual = 0.0103743985145, Final residual = 0.000189409929117, No Iterations 4
smoothSolver:  Solving for k, Initial residual = 0.0212680646939, Final residual = 0.00057041917276, No Iterations 4
ExecutionTime = 2.23 s  ClockTime = 2 s

Time = 31

smoothSolver:  Solving for Ux, Initial residual = 0.0122914526114, Final residual = 0.000278073946428, No Iterations 4
smoothSolver:  Solving for Uy, Initial residual = 0.0143609110174, Final residual = 0.000305356312282, No Iterations 4
GAMG:  Solving for p, Initial residual = 0.262887746126, Final residual = 0.00247980966768, No Iterations 12
time step continuity errors : sum local = 0.0341292689026, global = -0.00618169261038, cumulative = 0.125779063579
smoothSolver:  Solving for epsilon, Initial residual = 0.00979586815868, Final residual = 0.000186328212033, No Iterations 4
smoothSolver:  Solving for k, Initial residual = 0.0202808542338, Final residual = 0.000548451985766, No Iterations 4
ExecutionTime = 2.28 s  ClockTime = 2 s

Time = 32

smoothSolver:  Solving for Ux, Initial residual = 0.00933482505458, Final residual = 0.000211340026193, No Iterations 4
smoothSolver:  Solving for Uy, Initial residual = 0.016110300433, Final residual = 0.000365542522463, No Iterations 4
GAMG:  Solving for p, Initial residual = 0.275547761305, Final residual = 0.0020356959414, No Iterations 10
time step continuity errors : sum local = 0.0237718578041, global = 0.00364650937878, cumulative = 0.129425572958
smoothSolver:  Solving for epsilon, Initial residual = 0.00949930058395, Final residual = 0.000184561225194, No Iterations 4
smoothSolver:  Solving for k, Initial residual = 0.0194613546503, Final residual = 0.000528698326878, No Iterations 4
ExecutionTime = 2.33 s  ClockTime = 2 s

Time = 33

smoothSolver:  Solving for Ux, Initial residual = 0.00859625086305, Final residual = 0.000168016406952, No Iterations 4
smoothSolver:  Solving for Uy, Initial residual = 0.0132846900373, Final residual = 0.000317870364957, No Iterations 4
GAMG:  Solving for p, Initial residual = 0.352275775371, Final residual = 0.00334807917129, No Iterations 10
time step continuity errors : sum local = 0.0317000390825, global = 0.00490893748774, cumulative = 0.134334510446
smoothSolver:  Solving for epsilon, Initial residual = 0.00933017322085, Final residual = 0.000182865649164, No Iterations 4
smoothSolver:  Solving for k, Initial residual = 0.0187950944127, Final residual = 0.000511729311731, No Iterations 4
ExecutionTime = 2.38 s  ClockTime = 2 s

Time = 34

smoothSolver:  Solving for Ux, Initial residual = 0.00836700733454, Final residual = 0.000159257146406, No Iterations 4
smoothSolver:  Solving for Uy, Initial residual = 0.0124166200353, Final residual = 0.000296530747505, No Iterations 4
GAMG:  Solving for p, Initial residual = 0.313260679486, Final residual = 0.00295959019053, No Iterations 13
time step continuity errors : sum local = 0.0256485013125, global = -0.00352548462947, cumulative = 0.130809025816
smoothSolver:  Solving for epsilon, Initial residual = 0.00910579308323, Final residual = 0.000179992852461, No Iterations 4
smoothSolver:  Solving for k, Initial residual = 0.0181707339092, Final residual = 0.000495770576578, No Iterations 4
ExecutionTime = 2.44 s  ClockTime = 2 s

Time = 35

smoothSolver:  Solving for Ux, Initial residual = 0.00764391816744, Final residual = 0.00016206901061, No Iterations 4
smoothSolver:  Solving for Uy, Initial residual = 0.01404847187, Final residual = 0.000341193634509, No Iterations 4
GAMG:  Solving for p, Initial residual = 0.273126949052, Final residual = 0.00254978021533, No Iterations 11
time step continuity errors : sum local = 0.0244785026806, global = -0.00445998414193, cumulative = 0.126349041674
smoothSolver:  Solving for epsilon, Initial residual = 0.00879987382965, Final residual = 0.000175675350204, No Iterations 4
smoothSolver:  Solving for k, Initial residual = 0.0175307887387, Final residual = 0.000479211947105, No Iterations 4
ExecutionTime = 2.49 s  ClockTime = 2 s

Time = 36

smoothSolver:  Solving for Ux, Initial residual = 0.00821105603781, Final residual = 0.00018754346343, No Iterations 4
smoothSolver:  Solving for Uy, Initial residual = 0.0130574384104, Final residual = 0.000317142930906, No Iterations 4
GAMG:  Solving for p, Initial residual = 0.24100903013, Final residual = 0.00236739805737, No Iterations 8
time step continuity errors : sum local = 0.0252099584995, global = -0.00343068561998, cumulative = 0.122918356054
smoothSolver:  Solving for epsilon, Initial residual = 0.00848815707333, Final residual = 0.000171075245099, No Iterations 4
smoothSolver:  Solving for k, Initial residual = 0.0168826746742, Final residual = 0.000462320221432, No Iterations 4
ExecutionTime = 2.55 s  ClockTime = 2 s

Time = 37

smoothSolver:  Solving for Ux, Initial residual = 0.00817958957973, Final residual = 0.000189898262666, No Iterations 4
smoothSolver:  Solving for Uy, Initial residual = 0.0121877671257, Final residual = 0.000291024433307, No Iterations 4
GAMG:  Solving for p, Initial residual = 0.202668528595, Final residual = 0.001672629083, No Iterations 13
time step continuity errors : sum local = 0.0174768190339, global = 0.00227017745736, cumulative = 0.125188533512
smoothSolver:  Solving for epsilon, Initial residual = 0.00827959497642, Final residual = 0.000167742861362, No Iterations 4
smoothSolver:  Solving for k, Initial residual = 0.0162925609314, Final residual = 0.000446305402674, No Iterations 4
ExecutionTime = 2.6 s  ClockTime = 2 s

Time = 38

smoothSolver:  Solving for Ux, Initial residual = 0.00750377112977, Final residual = 0.000168825593436, No Iterations 4
smoothSolver:  Solving for Uy, Initial residual = 0.0120798047316, Final residual = 0.000295106578394, No Iterations 4
GAMG:  Solving for p, Initial residual = 0.220295764772, Final residual = 0.00193851421504, No Iterations 11
time step continuity errors : sum local = 0.0186634362252, global = 0.00331222835954, cumulative = 0.128500761871
smoothSolver:  Solving for epsilon, Initial residual = 0.00817204641566, Final residual = 0.000165191978341, No Iterations 4
smoothSolver:  Solving for k, Initial residual = 0.0157775912133, Final residual = 0.000432139403662, No Iterations 4
ExecutionTime = 2.66 s  ClockTime = 2 s

Time = 39

smoothSolver:  Solving for Ux, Initial residual = 0.00725525818966, Final residual = 0.000154993560632, No Iterations 4
smoothSolver:  Solving for Uy, Initial residual = 0.0114097527037, Final residual = 0.000287377348126, No Iterations 4
GAMG:  Solving for p, Initial residual = 0.227652350691, Final residual = 0.00191850045512, No Iterations 7
time step continuity errors : sum local = 0.0170410971487, global = 0.001371566421, cumulative = 0.129872328292
smoothSolver:  Solving for epsilon, Initial residual = 0.00805660477463, Final residual = 0.000162049405992, No Iterations 4
smoothSolver:  Solving for k, Initial residual = 0.0153204798252, Final residual = 0.000419467774094, No Iterations 4
ExecutionTime = 2.7 s  ClockTime = 3 s

Time = 40

smoothSolver:  Solving for Ux, Initial residual = 0.00702129387906, Final residual = 0.000150603836749, No Iterations 4
smoothSolver:  Solving for Uy, Initial residual = 0.0119809720139, Final residual = 0.00030369423354, No Iterations 4
GAMG:  Solving for p, Initial residual = 0.201769548201, Final residual = 0.00177027506838, No Iterations 11
time step continuity errors : sum local = 0.015403909738, global = -0.00198779728847, cumulative = 0.127884531004
smoothSolver:  Solving for epsilon, Initial residual = 0.00787657542103, Final residual = 0.000158413221967, No Iterations 4
smoothSolver:  Solving for k, Initial residual = 0.0148905249629, Final residual = 0.000407250193494, No Iterations 4
ExecutionTime = 2.75 s  ClockTime = 3 s

Time = 41

smoothSolver:  Solving for Ux, Initial residual = 0.00690391337735, Final residual = 0.000153926375734, No Iterations 4
smoothSolver:  Solving for Uy, Initial residual = 0.0123754478024, Final residual = 0.000316942866643, No Iterations 4
GAMG:  Solving for p, Initial residual = 0.192997463018, Final residual = 0.00177319569737, No Iterations 9
time step continuity errors : sum local = 0.0161033806432, global = -0.00292506610389, cumulative = 0.1249594649
smoothSolver:  Solving for epsilon, Initial residual = 0.00765488815931, Final residual = 0.000154336589485, No Iterations 4
smoothSolver:  Solving for k, Initial residual = 0.0144606723941, Final residual = 0.000395119039025, No Iterations 4
ExecutionTime = 2.8 s  ClockTime = 3 s

Time = 42

smoothSolver:  Solving for Ux, Initial residual = 0.00699444310065, Final residual = 0.000159722822624, No Iterations 4
smoothSolver:  Solving for Uy, Initial residual = 0.0117188105269, Final residual = 0.000301271236508, No Iterations 4
GAMG:  Solving for p, Initial residual = 0.17525388927, Final residual = 0.00135070363179, No Iterations 7
time step continuity errors : sum local = 0.0125982176175, global = 0.000955912320115, cumulative = 0.12591537722
smoothSolver:  Solving for epsilon, Initial residual = 0.00743847475444, Final residual = 0.000150456012056, No Iterations 4
smoothSolver:  Solving for k, Initial residual = 0.0140477690123, Final residual = 0.000383446937753, No Iterations 4
ExecutionTime = 2.85 s  ClockTime = 3 s

Time = 43

smoothSolver:  Solving for Ux, Initial residual = 0.00694450618591, Final residual = 0.000159300959905, No Iterations 4
smoothSolver:  Solving for Uy, Initial residual = 0.0113511593585, Final residual = 0.000291060136265, No Iterations 4
GAMG:  Solving for p, Initial residual = 0.160207281662, Final residual = 0.00130214573795, No Iterations 9
time step continuity errors : sum local = 0.0119876801599, global = 0.00150824212235, cumulative = 0.127423619342
smoothSolver:  Solving for epsilon, Initial residual = 0.00725272680114, Final residual = 0.000147019443998, No Iterations 4
smoothSolver:  Solving for k, Initial residual = 0.0136721162381, Final residual = 0.000372787672619, No Iterations 4
ExecutionTime = 2.91 s  ClockTime = 3 s

Time = 44

smoothSolver:  Solving for Ux, Initial residual = 0.00677773967041, Final residual = 0.000152878550518, No Iterations 4
smoothSolver:  Solving for Uy, Initial residual = 0.0113006601961, Final residual = 0.000293416714808, No Iterations 4
GAMG:  Solving for p, Initial residual = 0.162728881678, Final residual = 0.00110147168238, No Iterations 7
time step continuity errors : sum local = 0.00980595101957, global = -0.0013166385759, cumulative = 0.126106980766
smoothSolver:  Solving for epsilon, Initial residual = 0.00708749145649, Final residual = 0.000143755040791, No Iterations 4
smoothSolver:  Solving for k, Initial residual = 0.0133448070274, Final residual = 0.000363308833868, No Iterations 4
ExecutionTime = 2.96 s  ClockTime = 3 s

Time = 45

smoothSolver:  Solving for Ux, Initial residual = 0.00659366902274, Final residual = 0.000146274578022, No Iterations 4
smoothSolver:  Solving for Uy, Initial residual = 0.0113979568847, Final residual = 0.000299506771947, No Iterations 4
GAMG:  Solving for p, Initial residual = 0.1577759047, Final residual = 0.00101530213378, No Iterations 7
time step continuity errors : sum local = 0.00872164798989, global = -0.000962733055741, cumulative = 0.125144247711
smoothSolver:  Solving for epsilon, Initial residual = 0.00692930076231, Final residual = 0.000140389001958, No Iterations 4
smoothSolver:  Solving for k, Initial residual = 0.0130497242681, Final residual = 0.00035456776368, No Iterations 4
ExecutionTime = 3 s  ClockTime = 3 s

Time = 46

smoothSolver:  Solving for Ux, Initial residual = 0.0064310456949, Final residual = 0.000143280648328, No Iterations 4
smoothSolver:  Solving for Uy, Initial residual = 0.0117044258589, Final residual = 0.000309632817515, No Iterations 4
GAMG:  Solving for p, Initial residual = 0.147058418915, Final residual = 0.00141262556859, No Iterations 7
time step continuity errors : sum local = 0.0120530161685, global = -0.00166862925415, cumulative = 0.123475618457
smoothSolver:  Solving for epsilon, Initial residual = 0.00731762293824, Final residual = 0.000137306732822, No Iterations 4
smoothSolver:  Solving for k, Initial residual = 0.0127769435835, Final residual = 0.000346124557678, No Iterations 4
ExecutionTime = 3.05 s  ClockTime = 3 s

Time = 47

smoothSolver:  Solving for Ux, Initial residual = 0.00636366331354, Final residual = 0.000143317950121, No Iterations 4
smoothSolver:  Solving for Uy, Initial residual = 0.0116762157271, Final residual = 0.000309727744818, No Iterations 4
GAMG:  Solving for p, Initial residual = 0.141625073612, Final residual = 0.000909961618289, No Iterations 7
time step continuity errors : sum local = 0.0078530381242, global = 0.000709153055521, cumulative = 0.124184771512
smoothSolver:  Solving for epsilon, Initial residual = 0.00688010622853, Final residual = 0.000134038664325, No Iterations 4
smoothSolver:  Solving for k, Initial residual = 0.0124983507674, Final residual = 0.000337906706945, No Iterations 4
ExecutionTime = 3.1 s  ClockTime = 3 s

Time = 48

smoothSolver:  Solving for Ux, Initial residual = 0.00638395111254, Final residual = 0.000145092809593, No Iterations 4
smoothSolver:  Solving for Uy, Initial residual = 0.0113549015706, Final residual = 0.000300865082467, No Iterations 4
GAMG:  Solving for p, Initial residual = 0.131452774964, Final residual = 0.000860767278684, No Iterations 7
time step continuity errors : sum local = 0.00750178409067, global = 0.000685820768456, cumulative = 0.124870592281
smoothSolver:  Solving for epsilon, Initial residual = 0.00658708741047, Final residual = 0.000130875987503, No Iterations 4
smoothSolver:  Solving for k, Initial residual = 0.0122413977403, Final residual = 0.000330212741406, No Iterations 4
ExecutionTime = 3.14 s  ClockTime = 3 s

Time = 49

smoothSolver:  Solving for Ux, Initial residual = 0.00637075072849, Final residual = 0.000144493937527, No Iterations 4
smoothSolver:  Solving for Uy, Initial residual = 0.0112445716501, Final residual = 0.000298628786054, No Iterations 4
GAMG:  Solving for p, Initial residual = 0.123767730648, Final residual = 0.000866958242478, No Iterations 7
time step continuity errors : sum local = 0.0074912571959, global = 0.000719836949842, cumulative = 0.12559042923
smoothSolver:  Solving for epsilon, Initial residual = 0.00636494534624, Final residual = 0.000127905351108, No Iterations 4
smoothSolver:  Solving for k, Initial residual = 0.0120094336482, Final residual = 0.000323179685349, No Iterations 4
ExecutionTime = 3.2 s  ClockTime = 3 s

Time = 50

smoothSolver:  Solving for Ux, Initial residual = 0.00627512524066, Final residual = 0.000141395061008, No Iterations 4
smoothSolver:  Solving for Uy, Initial residual = 0.0112321877685, Final residual = 0.000301198816245, No Iterations 4
GAMG:  Solving for p, Initial residual = 0.122565691958, Final residual = 0.000849350388106, No Iterations 7
time step continuity errors : sum local = 0.00720841176188, global = -0.00102813570709, cumulative = 0.124562293523
smoothSolver:  Solving for epsilon, Initial residual = 0.00618363795164, Final residual = 0.000124939846899, No Iterations 4
smoothSolver:  Solving for k, Initial residual = 0.0118024025167, Final residual = 0.00031677795351, No Iterations 4
ExecutionTime = 3.24 s  ClockTime = 3 s

Time = 51

smoothSolver:  Solving for Ux, Initial residual = 0.00613690113067, Final residual = 0.000137803280316, No Iterations 4
smoothSolver:  Solving for Uy, Initial residual = 0.0113075977844, Final residual = 0.000305762229529, No Iterations 4
GAMG:  Solving for p, Initial residual = 0.11730858704, Final residual = 0.000530894241353, No Iterations 7
time step continuity errors : sum local = 0.00442559262562, global = -0.000836376121477, cumulative = 0.123725917402
smoothSolver:  Solving for epsilon, Initial residual = 0.00602847804246, Final residual = 0.000121925462972, No Iterations 4
smoothSolver:  Solving for k, Initial residual = 0.0116137465391, Final residual = 0.00031082549595, No Iterations 4
ExecutionTime = 3.29 s  ClockTime = 3 s

Time = 52

smoothSolver:  Solving for Ux, Initial residual = 0.00601887074122, Final residual = 0.000135491099373, No Iterations 4
smoothSolver:  Solving for Uy, Initial residual = 0.011365812491, Final residual = 0.000307961615533, No Iterations 4
GAMG:  Solving for p, Initial residual = 0.114160318826, Final residual = 0.000761391651224, No Iterations 7
time step continuity errors : sum local = 0.00630926020039, global = -0.000905914877483, cumulative = 0.122820002524
smoothSolver:  Solving for epsilon, Initial residual = 0.00587823801118, Final residual = 0.000118901984341, No Iterations 4
smoothSolver:  Solving for k, Initial residual = 0.0114396432936, Final residual = 0.000305245583861, No Iterations 4
ExecutionTime = 3.33 s  ClockTime = 3 s

Time = 53

smoothSolver:  Solving for Ux, Initial residual = 0.00597016966081, Final residual = 0.000134815921806, No Iterations 4
smoothSolver:  Solving for Uy, Initial residual = 0.0112900563187, Final residual = 0.000304830604621, No Iterations 4
GAMG:  Solving for p, Initial residual = 0.110840732185, Final residual = 0.000669344706072, No Iterations 7
time step continuity errors : sum local = 0.0055672789488, global = 0.000726011379834, cumulative = 0.123546013904
smoothSolver:  Solving for epsilon, Initial residual = 0.00574149074585, Final residual = 0.000115941056023, No Iterations 4
smoothSolver:  Solving for k, Initial residual = 0.0112854749653, Final residual = 0.000300110806799, No Iterations 4
ExecutionTime = 3.37 s  ClockTime = 3 s

Time = 54

smoothSolver:  Solving for Ux, Initial residual = 0.00597114067478, Final residual = 0.000134740073339, No Iterations 4
smoothSolver:  Solving for Uy, Initial residual = 0.0111749266355, Final residual = 0.000301153831344, No Iterations 4
GAMG:  Solving for p, Initial residual = 0.105961736242, Final residual = 0.00101212205111, No Iterations 6
time step continuity errors : sum local = 0.00844131309037, global = -1.70704017766e-05, cumulative = 0.123528943502
smoothSolver:  Solving for epsilon, Initial residual = 0.00561898331732, Final residual = 0.000113175005082, No Iterations 4
smoothSolver:  Solving for k, Initial residual = 0.0111518175156, Final residual = 0.000295627828364, No Iterations 4
ExecutionTime = 3.42 s  ClockTime = 3 s

Time = 55

smoothSolver:  Solving for Ux, Initial residual = 0.00594132178782, Final residual = 0.000134014792296, No Iterations 4
smoothSolver:  Solving for Uy, Initial residual = 0.0111200228731, Final residual = 0.000300439402953, No Iterations 4
GAMG:  Solving for p, Initial residual = 0.100365689369, Final residual = 0.000602847018156, No Iterations 7
time step continuity errors : sum local = 0.00498850413927, global = -0.000171395919077, cumulative = 0.123357547583
smoothSolver:  Solving for epsilon, Initial residual = 0.00550658542955, Final residual = 0.000110477710205, No Iterations 4
smoothSolver:  Solving for k, Initial residual = 0.0110417603414, Final residual = 0.000291795289235, No Iterations 4
ExecutionTime = 3.47 s  ClockTime = 3 s

Time = 56

smoothSolver:  Solving for Ux, Initial residual = 0.00586838322775, Final residual = 0.000132483907189, No Iterations 4
smoothSolver:  Solving for Uy, Initial residual = 0.0110735836869, Final residual = 0.000301228294097, No Iterations 4
GAMG:  Solving for p, Initial residual = 0.0984163908515, Final residual = 0.000399867677393, No Iterations 7
time step continuity errors : sum local = 0.00327956954921, global = -0.000406818965125, cumulative = 0.122950728618
smoothSolver:  Solving for epsilon, Initial residual = 0.0054073170467, Final residual = 0.000107870750623, No Iterations 4
smoothSolver:  Solving for k, Initial residual = 0.0109464389778, Final residual = 0.000288459958845, No Iterations 4
ExecutionTime = 3.51 s  ClockTime = 3 s

Time = 57

smoothSolver:  Solving for Ux, Initial residual = 0.005767981047, Final residual = 0.000130455361187, No Iterations 4
smoothSolver:  Solving for Uy, Initial residual = 0.0110767408146, Final residual = 0.000302010845554, No Iterations 4
GAMG:  Solving for p, Initial residual = 0.0933599721418, Final residual = 0.000909486506091, No Iterations 6
time step continuity errors : sum local = 0.00739111242855, global = 0.000509595439703, cumulative = 0.123460324058
smoothSolver:  Solving for epsilon, Initial residual = 0.00530982284832, Final residual = 0.000105343733942, No Iterations 4
smoothSolver:  Solving for k, Initial residual = 0.0108664862765, Final residual = 0.000285587960407, No Iterations 4
ExecutionTime = 3.55 s  ClockTime = 3 s

Time = 58

smoothSolver:  Solving for Ux, Initial residual = 0.0056874484779, Final residual = 0.000128639027591, No Iterations 4
smoothSolver:  Solving for Uy, Initial residual = 0.0110563334054, Final residual = 0.000300875823038, No Iterations 4
GAMG:  Solving for p, Initial residual = 0.0929406924757, Final residual = 0.000650101486351, No Iterations 6
time step continuity errors : sum local = 0.00523580767313, global = 0.000128697397397, cumulative = 0.123589021455
smoothSolver:  Solving for epsilon, Initial residual = 0.00522252461393, Final residual = 0.00010291773212, No Iterations 4
smoothSolver:  Solving for k, Initial residual = 0.0107975595775, Final residual = 0.00028303462075, No Iterations 4
ExecutionTime = 3.59 s  ClockTime = 3 s

Time = 59

smoothSolver:  Solving for Ux, Initial residual = 0.00565015509482, Final residual = 0.000127541051161, No Iterations 4
smoothSolver:  Solving for Uy, Initial residual = 0.0110044278992, Final residual = 0.000298801484948, No Iterations 4
GAMG:  Solving for p, Initial residual = 0.0921962670673, Final residual = 0.000842656750649, No Iterations 6
time step continuity errors : sum local = 0.00677203646913, global = 0.000197148794522, cumulative = 0.12378617025
smoothSolver:  Solving for epsilon, Initial residual = 0.0051304318889, Final residual = 0.000100770661029, No Iterations 4
smoothSolver:  Solving for k, Initial residual = 0.0107375566302, Final residual = 0.000280893844902, No Iterations 4
ExecutionTime = 3.63 s  ClockTime = 3 s

Time = 60

smoothSolver:  Solving for Ux, Initial residual = 0.0056251159824, Final residual = 0.000126856747195, No Iterations 4
smoothSolver:  Solving for Uy, Initial residual = 0.0109381896927, Final residual = 0.000296943557408, No Iterations 4
GAMG:  Solving for p, Initial residual = 0.0855215416947, Final residual = 0.000760358548172, No Iterations 6
time step continuity errors : sum local = 0.00607842633659, global = 0.000155726989635, cumulative = 0.123941897239
smoothSolver:  Solving for epsilon, Initial residual = 0.00507046136635, Final residual = 9.87924858528e-05, No Iterations 4
smoothSolver:  Solving for k, Initial residual = 0.0106862356262, Final residual = 0.0002791217129, No Iterations 4
ExecutionTime = 3.68 s  ClockTime = 4 s

Time = 61

smoothSolver:  Solving for Ux, Initial residual = 0.00558282218183, Final residual = 0.000125931643252, No Iterations 4
smoothSolver:  Solving for Uy, Initial residual = 0.0108592261173, Final residual = 0.000295639943724, No Iterations 4
GAMG:  Solving for p, Initial residual = 0.0889393918068, Final residual = 0.000682510236098, No Iterations 6
time step continuity errors : sum local = 0.0054701650426, global = 0.000290920806097, cumulative = 0.124232818046
smoothSolver:  Solving for epsilon, Initial residual = 0.00498967288545, Final residual = 9.7056870117e-05, No Iterations 4
smoothSolver:  Solving for k, Initial residual = 0.0106462664811, Final residual = 0.000277760240758, No Iterations 4
ExecutionTime = 3.72 s  ClockTime = 4 s

Time = 62

smoothSolver:  Solving for Ux, Initial residual = 0.00552136640037, Final residual = 0.00012495697893, No Iterations 4
smoothSolver:  Solving for Uy, Initial residual = 0.0107999343911, Final residual = 0.000294629951035, No Iterations 4
GAMG:  Solving for p, Initial residual = 0.0794495060678, Final residual = 0.000721909227313, No Iterations 6
time step continuity errors : sum local = 0.00573854462657, global = 0.000920687842107, cumulative = 0.125153505888
smoothSolver:  Solving for epsilon, Initial residual = 0.00493349781836, Final residual = 9.54235211368e-05, No Iterations 4
smoothSolver:  Solving for k, Initial residual = 0.0106121911185, Final residual = 0.000276744274715, No Iterations 4
ExecutionTime = 3.77 s  ClockTime = 4 s

Time = 63

smoothSolver:  Solving for Ux, Initial residual = 0.00545104783396, Final residual = 0.000123505378957, No Iterations 4
smoothSolver:  Solving for Uy, Initial residual = 0.0107443696256, Final residual = 0.000292935775334, No Iterations 4
GAMG:  Solving for p, Initial residual = 0.0790209806576, Final residual = 0.000662256372054, No Iterations 6
time step continuity errors : sum local = 0.00527397898675, global = 0.000947203635827, cumulative = 0.126100709524
smoothSolver:  Solving for epsilon, Initial residual = 0.00487261799024, Final residual = 9.39944443209e-05, No Iterations 4
smoothSolver:  Solving for k, Initial residual = 0.010582288945, Final residual = 0.000275965913743, No Iterations 4
ExecutionTime = 3.81 s  ClockTime = 4 s

Time = 64

smoothSolver:  Solving for Ux, Initial residual = 0.00539827209887, Final residual = 0.000122224040252, No Iterations 4
smoothSolver:  Solving for Uy, Initial residual = 0.0106953942254, Final residual = 0.000291101337824, No Iterations 4
GAMG:  Solving for p, Initial residual = 0.0711231047047, Final residual = 0.000583765941652, No Iterations 6
time step continuity errors : sum local = 0.00459227081216, global = 0.000961537475382, cumulative = 0.127062246999
smoothSolver:  Solving for epsilon, Initial residual = 0.00481956602144, Final residual = 9.27604929257e-05, No Iterations 4
smoothSolver:  Solving for k, Initial residual = 0.0105605062584, Final residual = 0.000275389177715, No Iterations 4
ExecutionTime = 3.86 s  ClockTime = 4 s

Time = 65

smoothSolver:  Solving for Ux, Initial residual = 0.00535783080047, Final residual = 0.000121123134643, No Iterations 4
smoothSolver:  Solving for Uy, Initial residual = 0.0106243344619, Final residual = 0.000288860316845, No Iterations 4
GAMG:  Solving for p, Initial residual = 0.0676970861052, Final residual = 0.000578179802256, No Iterations 6
time step continuity errors : sum local = 0.00453660078247, global = 0.000910910028871, cumulative = 0.127973157028
smoothSolver:  Solving for epsilon, Initial residual = 0.00477783451035, Final residual = 9.16931146144e-05, No Iterations 4
smoothSolver:  Solving for k, Initial residual = 0.0105466032721, Final residual = 0.000274884721041, No Iterations 4
ExecutionTime = 3.9 s  ClockTime = 4 s

Time = 66

smoothSolver:  Solving for Ux, Initial residual = 0.00532063388955, Final residual = 0.00012020741909, No Iterations 4
smoothSolver:  Solving for Uy, Initial residual = 0.0105407990454, Final residual = 0.000286690209651, No Iterations 4
GAMG:  Solving for p, Initial residual = 0.0641277109238, Final residual = 0.000541206928073, No Iterations 6
time step continuity errors : sum local = 0.00423094197075, global = 0.000719801834904, cumulative = 0.128692958863
smoothSolver:  Solving for epsilon, Initial residual = 0.00472916576919, Final residual = 9.07197065474e-05, No Iterations 4
smoothSolver:  Solving for k, Initial residual = 0.0105457935507, Final residual = 0.000274927962327, No Iterations 4
ExecutionTime = 3.94 s  ClockTime = 4 s

Time = 67

smoothSolver:  Solving for Ux, Initial residual = 0.00527926423349, Final residual = 0.000119282992231, No Iterations 4
smoothSolver:  Solving for Uy, Initial residual = 0.01045819363, Final residual = 0.000284336689336, No Iterations 4
GAMG:  Solving for p, Initial residual = 0.0614703424468, Final residual = 0.000578151077331, No Iterations 6
time step continuity errors : sum local = 0.00451006636858, global = 0.000827185527867, cumulative = 0.129520144391
smoothSolver:  Solving for epsilon, Initial residual = 0.00469743441782, Final residual = 8.98394406349e-05, No Iterations 4
smoothSolver:  Solving for k, Initial residual = 0.0105449658695, Final residual = 0.000274722525187, No Iterations 4
ExecutionTime = 3.98 s  ClockTime = 4 s

Time = 68

smoothSolver:  Solving for Ux, Initial residual = 0.00522894821352, Final residual = 0.000118230557626, No Iterations 4
smoothSolver:  Solving for Uy, Initial residual = 0.0103869643, Final residual = 0.000281960024664, No Iterations 4
GAMG:  Solving for p, Initial residual = 0.0585468398134, Final residual = 0.000526845306509, No Iterations 6
time step continuity errors : sum local = 0.00410789664008, global = 0.000663896125833, cumulative = 0.130184040516
smoothSolver:  Solving for epsilon, Initial residual = 0.00465922084006, Final residual = 8.90371128366e-05, No Iterations 4
smoothSolver:  Solving for k, Initial residual = 0.0105549900605, Final residual = 0.000274955064493, No Iterations 4
ExecutionTime = 4.02 s  ClockTime = 4 s

Time = 69

smoothSolver:  Solving for Ux, Initial residual = 0.00517909583051, Final residual = 0.000117167125235, No Iterations 4
smoothSolver:  Solving for Uy, Initial residual = 0.0103144827408, Final residual = 0.00027958653497, No Iterations 4
GAMG:  Solving for p, Initial residual = 0.0568896179674, Final residual = 0.000496518930366, No Iterations 6
time step continuity errors : sum local = 0.00386672750771, global = 0.000601633371809, cumulative = 0.130785673888
smoothSolver:  Solving for epsilon, Initial residual = 0.00462693784062, Final residual = 8.83016907009e-05, No Iterations 4
smoothSolver:  Solving for k, Initial residual = 0.0105687788434, Final residual = 0.000275391819545, No Iterations 4
ExecutionTime = 4.07 s  ClockTime = 4 s

Time = 70

smoothSolver:  Solving for Ux, Initial residual = 0.00513223991834, Final residual = 0.000116125951224, No Iterations 4
smoothSolver:  Solving for Uy, Initial residual = 0.0102346454076, Final residual = 0.000276775985689, No Iterations 4
GAMG:  Solving for p, Initial residual = 0.0529642829939, Final residual = 0.000508022068881, No Iterations 6
time step continuity errors : sum local = 0.00395323316197, global = 0.000518642527103, cumulative = 0.131304316415
smoothSolver:  Solving for epsilon, Initial residual = 0.00460300022258, Final residual = 8.76648237661e-05, No Iterations 4
smoothSolver:  Solving for k, Initial residual = 0.0105951314015, Final residual = 0.000275891868376, No Iterations 4
ExecutionTime = 4.11 s  ClockTime = 4 s

Time = 71

smoothSolver:  Solving for Ux, Initial residual = 0.00508990487342, Final residual = 0.000115083804432, No Iterations 4
smoothSolver:  Solving for Uy, Initial residual = 0.0101388445307, Final residual = 0.0002740095049, No Iterations 4
GAMG:  Solving for p, Initial residual = 0.0528709019389, Final residual = 0.000485462022399, No Iterations 6
time step continuity errors : sum local = 0.00377435823967, global = 0.000498141770674, cumulative = 0.131802458186
smoothSolver:  Solving for epsilon, Initial residual = 0.00457322970475, Final residual = 8.70877655691e-05, No Iterations 4
smoothSolver:  Solving for k, Initial residual = 0.0106300855813, Final residual = 0.000276675148731, No Iterations 4
ExecutionTime = 4.15 s  ClockTime = 4 s

Time = 72

smoothSolver:  Solving for Ux, Initial residual = 0.00505029286301, Final residual = 0.00011404874422, No Iterations 4
smoothSolver:  Solving for Uy, Initial residual = 0.0100361052927, Final residual = 0.000271206083719, No Iterations 4
GAMG:  Solving for p, Initial residual = 0.0520929033511, Final residual = 0.000443874242504, No Iterations 6
time step continuity errors : sum local = 0.00344630584958, global = 0.000436010201538, cumulative = 0.132238468387
smoothSolver:  Solving for epsilon, Initial residual = 0.00455945520879, Final residual = 8.65896892328e-05, No Iterations 4
smoothSolver:  Solving for k, Initial residual = 0.0106730654363, Final residual = 0.000277653114441, No Iterations 4
ExecutionTime = 4.2 s  ClockTime = 4 s

Time = 73

smoothSolver:  Solving for Ux, Initial residual = 0.00501143534597, Final residual = 0.000113003420598, No Iterations 4
smoothSolver:  Solving for Uy, Initial residual = 0.009944187912, Final residual = 0.000268420088515, No Iterations 4
GAMG:  Solving for p, Initial residual = 0.051489819189, Final residual = 0.000399143323351, No Iterations 6
time step continuity errors : sum local = 0.0031019808259, global = 0.000358368545695, cumulative = 0.132596836933
smoothSolver:  Solving for epsilon, Initial residual = 0.00453194438395, Final residual = 8.6104792991e-05, No Iterations 4
smoothSolver:  Solving for k, Initial residual = 0.0107234080079, Final residual = 0.000278835811458, No Iterations 4
ExecutionTime = 4.24 s  ClockTime = 4 s

Time = 74

smoothSolver:  Solving for Ux, Initial residual = 0.00496858953469, Final residual = 0.000111973553126, No Iterations 4
smoothSolver:  Solving for Uy, Initial residual = 0.00985307685035, Final residual = 0.000265594269048, No Iterations 4
GAMG:  Solving for p, Initial residual = 0.048227789349, Final residual = 0.000358790554573, No Iterations 6
time step continuity errors : sum local = 0.00278755789278, global = 0.00026381384786, cumulative = 0.132860650781
smoothSolver:  Solving for epsilon, Initial residual = 0.00452775752132, Final residual = 8.5727175979e-05, No Iterations 4
smoothSolver:  Solving for k, Initial residual = 0.0107770944877, Final residual = 0.000280079090024, No Iterations 4
ExecutionTime = 4.29 s  ClockTime = 4 s

Time = 75

smoothSolver:  Solving for Ux, Initial residual = 0.0049226226368, Final residual = 0.000110898111509, No Iterations 4
smoothSolver:  Solving for Uy, Initial residual = 0.00977049288259, Final residual = 0.000262898206374, No Iterations 4
GAMG:  Solving for p, Initial residual = 0.0478104815442, Final residual = 0.00034570208999, No Iterations 6
time step continuity errors : sum local = 0.00268501393261, global = 0.000246481218677, cumulative = 0.133107132
smoothSolver:  Solving for epsilon, Initial residual = 0.0045054756462, Final residual = 8.53660208571e-05, No Iterations 4
smoothSolver:  Solving for k, Initial residual = 0.0108364262863, Final residual = 0.000281520869294, No Iterations 4
ExecutionTime = 4.33 s  ClockTime = 4 s

Time = 76

smoothSolver:  Solving for Ux, Initial residual = 0.00487777291714, Final residual = 0.000109842326855, No Iterations 4
smoothSolver:  Solving for Uy, Initial residual = 0.00968067347769, Final residual = 0.0002601054916, No Iterations 4
GAMG:  Solving for p, Initial residual = 0.0474672736047, Final residual = 0.000314563765253, No Iterations 6
time step continuity errors : sum local = 0.00243660187153, global = 0.000240254474035, cumulative = 0.133347386474
smoothSolver:  Solving for epsilon, Initial residual = 0.00448999649518, Final residual = 8.506553463e-05, No Iterations 4
smoothSolver:  Solving for k, Initial residual = 0.0108995175214, Final residual = 0.000283025298116, No Iterations 4
ExecutionTime = 4.37 s  ClockTime = 4 s

Time = 77

smoothSolver:  Solving for Ux, Initial residual = 0.00483509590894, Final residual = 0.000108792987487, No Iterations 4
smoothSolver:  Solving for Uy, Initial residual = 0.00957146761521, Final residual = 0.00025719402205, No Iterations 4
GAMG:  Solving for p, Initial residual = 0.0477961887279, Final residual = 0.00029569970204, No Iterations 6
time step continuity errors : sum local = 0.00228675421643, global = 0.000264143967056, cumulative = 0.133611530441
smoothSolver:  Solving for epsilon, Initial residual = 0.00447253482443, Final residual = 8.47314559383e-05, No Iterations 4
smoothSolver:  Solving for k, Initial residual = 0.0109648482138, Final residual = 0.000284678370925, No Iterations 4
ExecutionTime = 4.41 s  ClockTime = 4 s

Time = 78

smoothSolver:  Solving for Ux, Initial residual = 0.00479468242304, Final residual = 0.000107728475702, No Iterations 4
smoothSolver:  Solving for Uy, Initial residual = 0.00945688544435, Final residual = 0.000254013280048, No Iterations 4
GAMG:  Solving for p, Initial residual = 0.0464200914799, Final residual = 0.000283313553112, No Iterations 6
time step continuity errors : sum local = 0.0021879966634, global = 0.000273206496653, cumulative = 0.133884736937
smoothSolver:  Solving for epsilon, Initial residual = 0.00446603917904, Final residual = 8.44710336536e-05, No Iterations 4
smoothSolver:  Solving for k, Initial residual = 0.0110310713371, Final residual = 0.000286323725259, No Iterations 4
ExecutionTime = 4.46 s  ClockTime = 4 s

Time = 79

smoothSolver:  Solving for Ux, Initial residual = 0.00475333884294, Final residual = 0.000106657624162, No Iterations 4
smoothSolver:  Solving for Uy, Initial residual = 0.00935928551856, Final residual = 0.000251044901712, No Iterations 4
GAMG:  Solving for p, Initial residual = 0.0460276201025, Final residual = 0.000281869539517, No Iterations 6
time step continuity errors : sum local = 0.00216610101951, global = 0.000265274379546, cumulative = 0.134150011317
smoothSolver:  Solving for epsilon, Initial residual = 0.00444544062944, Final residual = 8.42115514577e-05, No Iterations 4
smoothSolver:  Solving for k, Initial residual = 0.0111011778335, Final residual = 0.000288082474643, No Iterations 4
ExecutionTime = 4.5 s  ClockTime = 4 s

Time = 80

smoothSolver:  Solving for Ux, Initial residual = 0.00470930177981, Final residual = 0.000105554332819, No Iterations 4
smoothSolver:  Solving for Uy, Initial residual = 0.00925234323573, Final residual = 0.000247999960491, No Iterations 4
GAMG:  Solving for p, Initial residual = 0.0455781891825, Final residual = 0.000273037048314, No Iterations 6
time step continuity errors : sum local = 0.00208879124694, global = 0.000245840874226, cumulative = 0.134395852191
smoothSolver:  Solving for epsilon, Initial residual = 0.00443424141306, Final residual = 8.38877765659e-05, No Iterations 4
smoothSolver:  Solving for k, Initial residual = 0.0111721589912, Final residual = 0.000289887123932, No Iterations 4
ExecutionTime = 4.54 s  ClockTime = 4 s

Time = 81

smoothSolver:  Solving for Ux, Initial residual = 0.00466469679637, Final residual = 0.000104473979962, No Iterations 4
smoothSolver:  Solving for Uy, Initial residual = 0.00913670579226, Final residual = 0.000244798061805, No Iterations 4
GAMG:  Solving for p, Initial residual = 0.0466468534485, Final residual = 0.000264496178392, No Iterations 6
time step continuity errors : sum local = 0.00201337481396, global = 0.00023965033026, cumulative = 0.134635502522
smoothSolver:  Solving for epsilon, Initial residual = 0.00443177105466, Final residual = 8.36134185402e-05, No Iterations 4
smoothSolver:  Solving for k, Initial residual = 0.0112423072441, Final residual = 0.000291618996923, No Iterations 4
ExecutionTime = 4.59 s  ClockTime = 4 s

Time = 82

smoothSolver:  Solving for Ux, Initial residual = 0.0046198813198, Final residual = 0.000103418272518, No Iterations 4
smoothSolver:  Solving for Uy, Initial residual = 0.00903454179597, Final residual = 0.000241649953167, No Iterations 4
GAMG:  Solving for p, Initial residual = 0.0477124133829, Final residual = 0.000243821449408, No Iterations 6
time step continuity errors : sum local = 0.00184890467874, global = 0.00021194470493, cumulative = 0.134847447226
smoothSolver:  Solving for epsilon, Initial residual = 0.00441557933596, Final residual = 8.33151986045e-05, No Iterations 4
smoothSolver:  Solving for k, Initial residual = 0.0113169006774, Final residual = 0.000293494058561, No Iterations 4
ExecutionTime = 4.63 s  ClockTime = 4 s

Time = 83

smoothSolver:  Solving for Ux, Initial residual = 0.0045755064525, Final residual = 0.00010235260845, No Iterations 4
smoothSolver:  Solving for Uy, Initial residual = 0.00892235436414, Final residual = 0.000238287036471, No Iterations 4
GAMG:  Solving for p, Initial residual = 0.0481477131942, Final residual = 0.000455945468891, No Iterations 5
time step continuity errors : sum local = 0.0034502771868, global = -0.000240380474479, cumulative = 0.134607066752
smoothSolver:  Solving for epsilon, Initial residual = 0.00440782891322, Final residual = 8.30433774843e-05, No Iterations 4
smoothSolver:  Solving for k, Initial residual = 0.0113917262931, Final residual = 0.00029534931463, No Iterations 4
ExecutionTime = 4.67 s  ClockTime = 5 s

Time = 84

smoothSolver:  Solving for Ux, Initial residual = 0.00453072856006, Final residual = 0.000101297666508, No Iterations 4
smoothSolver:  Solving for Uy, Initial residual = 0.00881277811507, Final residual = 0.000234929998936, No Iterations 4
GAMG:  Solving for p, Initial residual = 0.0442915317783, Final residual = 0.000381908126482, No Iterations 5
time step continuity errors : sum local = 0.00287334391738, global = 0.000382808427963, cumulative = 0.13498987518
smoothSolver:  Solving for epsilon, Initial residual = 0.00439266614802, Final residual = 8.27441766717e-05, No Iterations 4
smoothSolver:  Solving for k, Initial residual = 0.0114695907575, Final residual = 0.000297283359547, No Iterations 4
ExecutionTime = 4.72 s  ClockTime = 5 s

Time = 85

smoothSolver:  Solving for Ux, Initial residual = 0.00448547586643, Final residual = 0.000100221153931, No Iterations 4
smoothSolver:  Solving for Uy, Initial residual = 0.00869311644841, Final residual = 0.00023138095728, No Iterations 4
GAMG:  Solving for p, Initial residual = 0.042275155441, Final residual = 0.000390499630498, No Iterations 5
time step continuity errors : sum local = 0.00292778788043, global = 0.000398710378846, cumulative = 0.135388585559
smoothSolver:  Solving for epsilon, Initial residual = 0.00438666977628, Final residual = 8.24414705282e-05, No Iterations 4
smoothSolver:  Solving for k, Initial residual = 0.0115468292193, Final residual = 0.000299204918262, No Iterations 4
ExecutionTime = 4.76 s  ClockTime = 5 s

Time = 86

smoothSolver:  Solving for Ux, Initial residual = 0.00443856215664, Final residual = 9.91031947692e-05, No Iterations 4
smoothSolver:  Solving for Uy, Initial residual = 0.00857514627498, Final residual = 0.000227846475519, No Iterations 4
GAMG:  Solving for p, Initial residual = 0.0405442535325, Final residual = 0.000254999345158, No Iterations 6
time step continuity errors : sum local = 0.00190465779037, global = 0.000216884568286, cumulative = 0.135605470127
smoothSolver:  Solving for epsilon, Initial residual = 0.00437130033902, Final residual = 8.21366286686e-05, No Iterations 4
smoothSolver:  Solving for k, Initial residual = 0.0116247298977, Final residual = 0.000301169895953, No Iterations 4
ExecutionTime = 4.8 s  ClockTime = 5 s

Time = 87

smoothSolver:  Solving for Ux, Initial residual = 0.00439075377128, Final residual = 9.79648866675e-05, No Iterations 4
smoothSolver:  Solving for Uy, Initial residual = 0.0084555929196, Final residual = 0.000224312721088, No Iterations 4
GAMG:  Solving for p, Initial residual = 0.0389384271386, Final residual = 0.000262452070254, No Iterations 6
time step continuity errors : sum local = 0.00195133619303, global = 0.000294118182379, cumulative = 0.135899588309
smoothSolver:  Solving for epsilon, Initial residual = 0.00436701452645, Final residual = 8.1831151839e-05, No Iterations 4
smoothSolver:  Solving for k, Initial residual = 0.0117029228511, Final residual = 0.000303209239638, No Iterations 4
ExecutionTime = 4.84 s  ClockTime = 5 s

Time = 88

smoothSolver:  Solving for Ux, Initial residual = 0.00434346831701, Final residual = 9.68795354719e-05, No Iterations 4
smoothSolver:  Solving for Uy, Initial residual = 0.00832843312322, Final residual = 0.000220449100874, No Iterations 4
GAMG:  Solving for p, Initial residual = 0.0370717539009, Final residual = 0.000256019036552, No Iterations 6
time step continuity errors : sum local = 0.00189259363355, global = 0.000307931913325, cumulative = 0.136207520223
smoothSolver:  Solving for epsilon, Initial residual = 0.00435692395181, Final residual = 8.15163805663e-05, No Iterations 4
smoothSolver:  Solving for k, Initial residual = 0.0117813678899, Final residual = 0.00030532398898, No Iterations 4
ExecutionTime = 4.88 s  ClockTime = 5 s

Time = 89

smoothSolver:  Solving for Ux, Initial residual = 0.00429777838015, Final residual = 9.58347629772e-05, No Iterations 4
smoothSolver:  Solving for Uy, Initial residual = 0.00818535741325, Final residual = 0.000216156095922, No Iterations 4
GAMG:  Solving for p, Initial residual = 0.0343592101969, Final residual = 0.000233304822674, No Iterations 6
time step continuity errors : sum local = 0.00171729876652, global = 0.000245972363402, cumulative = 0.136453492586
smoothSolver:  Solving for epsilon, Initial residual = 0.00435516509744, Final residual = 8.12075304876e-05, No Iterations 4
smoothSolver:  Solving for k, Initial residual = 0.0118625453087, Final residual = 0.000307483822099, No Iterations 4
ExecutionTime = 4.93 s  ClockTime = 5 s

Time = 90

smoothSolver:  Solving for Ux, Initial residual = 0.00425104812771, Final residual = 9.47726461652e-05, No Iterations 4
smoothSolver:  Solving for Uy, Initial residual = 0.00805153540223, Final residual = 0.000211997034875, No Iterations 4
GAMG:  Solving for p, Initial residual = 0.0337040602669, Final residual = 0.00021347785653, No Iterations 6
time step continuity errors : sum local = 0.00156516286074, global = 0.000159938353829, cumulative = 0.13661343094
smoothSolver:  Solving for epsilon, Initial residual = 0.00432651891003, Final residual = 8.08544831677e-05, No Iterations 4
smoothSolver:  Solving for k, Initial residual = 0.0119431945815, Final residual = 0.0003097047335, No Iterations 4
ExecutionTime = 4.97 s  ClockTime = 5 s

Time = 91

smoothSolver:  Solving for Ux, Initial residual = 0.00420168893129, Final residual = 9.36368737789e-05, No Iterations 4
smoothSolver:  Solving for Uy, Initial residual = 0.00791735853144, Final residual = 0.000208298259726, No Iterations 4
GAMG:  Solving for p, Initial residual = 0.0337046474553, Final residual = 0.000268988630629, No Iterations 6
time step continuity errors : sum local = 0.00196752010775, global = -7.57343422693e-05, cumulative = 0.136537696598
smoothSolver:  Solving for epsilon, Initial residual = 0.00432718064349, Final residual = 8.06038126648e-05, No Iterations 4
smoothSolver:  Solving for k, Initial residual = 0.0120300880215, Final residual = 0.000311879800193, No Iterations 4
ExecutionTime = 5.01 s  ClockTime = 5 s

Time = 92

smoothSolver:  Solving for Ux, Initial residual = 0.0041520141252, Final residual = 9.24724429099e-05, No Iterations 4
smoothSolver:  Solving for Uy, Initial residual = 0.00782876629125, Final residual = 0.000205044018304, No Iterations 4
GAMG:  Solving for p, Initial residual = 0.0369756059777, Final residual = 0.000343990835116, No Iterations 6
time step continuity errors : sum local = 0.00250922931537, global = -0.00031764321755, cumulative = 0.13622005338
smoothSolver:  Solving for epsilon, Initial residual = 0.00431163436152, Final residual = 8.02342228155e-05, No Iterations 4
smoothSolver:  Solving for k, Initial residual = 0.0121194010525, Final residual = 0.00031420397006, No Iterations 4
ExecutionTime = 5.05 s  ClockTime = 5 s

Time = 93

smoothSolver:  Solving for Ux, Initial residual = 0.00410249037945, Final residual = 9.12788146559e-05, No Iterations 4
smoothSolver:  Solving for Uy, Initial residual = 0.00770409599527, Final residual = 0.000201365909692, No Iterations 4
GAMG:  Solving for p, Initial residual = 0.042382675441, Final residual = 0.000411809986724, No Iterations 6
time step continuity errors : sum local = 0.00301503619397, global = -0.000474391115725, cumulative = 0.135745662264
smoothSolver:  Solving for epsilon, Initial residual = 0.0043127196375, Final residual = 7.99635562336e-05, No Iterations 4
smoothSolver:  Solving for k, Initial residual = 0.0122106523121, Final residual = 0.000316384075763, No Iterations 4
ExecutionTime = 5.1 s  ClockTime = 5 s

Time = 94

smoothSolver:  Solving for Ux, Initial residual = 0.00405391637505, Final residual = 9.01219693265e-05, No Iterations 4
smoothSolver:  Solving for Uy, Initial residual = 0.00759236096929, Final residual = 0.00019765863222, No Iterations 4
GAMG:  Solving for p, Initial residual = 0.0419583636442, Final residual = 0.000323440375915, No Iterations 7
time step continuity errors : sum local = 0.00236843416841, global = 0.000303592845078, cumulative = 0.13604925511
smoothSolver:  Solving for epsilon, Initial residual = 0.00431218234926, Final residual = 7.97163766824e-05, No Iterations 4
smoothSolver:  Solving for k, Initial residual = 0.012302508275, Final residual = 0.000318702061638, No Iterations 4
ExecutionTime = 5.14 s  ClockTime = 5 s

Time = 95

smoothSolver:  Solving for Ux, Initial residual = 0.00400197058814, Final residual = 8.89642701559e-05, No Iterations 4
smoothSolver:  Solving for Uy, Initial residual = 0.00745634263353, Final residual = 0.000193877502687, No Iterations 4
GAMG:  Solving for p, Initial residual = 0.0388586214157, Final residual = 0.000288981693069, No Iterations 7
time step continuity errors : sum local = 0.0021119535805, global = 0.000250727775053, cumulative = 0.136299982885
smoothSolver:  Solving for epsilon, Initial residual = 0.00431821396595, Final residual = 7.9403019869e-05, No Iterations 4
smoothSolver:  Solving for k, Initial residual = 0.0123985928272, Final residual = 0.000321081335546, No Iterations 4
ExecutionTime = 5.19 s  ClockTime = 5 s

Time = 96

smoothSolver:  Solving for Ux, Initial residual = 0.00395249172534, Final residual = 8.77657916059e-05, No Iterations 4
smoothSolver:  Solving for Uy, Initial residual = 0.00732600932034, Final residual = 0.000189987748126, No Iterations 4
GAMG:  Solving for p, Initial residual = 0.0418423907607, Final residual = 0.000355743016486, No Iterations 5
time step continuity errors : sum local = 0.00260335983774, global = 0.000172295828415, cumulative = 0.136472278713
smoothSolver:  Solving for epsilon, Initial residual = 0.00436206843949, Final residual = 7.92612466707e-05, No Iterations 4
smoothSolver:  Solving for k, Initial residual = 0.0125141287373, Final residual = 0.000323561848998, No Iterations 4
ExecutionTime = 5.23 s  ClockTime = 5 s

Time = 97

smoothSolver:  Solving for Ux, Initial residual = 0.00390745945776, Final residual = 8.65746839897e-05, No Iterations 4
smoothSolver:  Solving for Uy, Initial residual = 0.00723143654841, Final residual = 0.000186480252536, No Iterations 4
GAMG:  Solving for p, Initial residual = 0.0504916209759, Final residual = 0.000333997004476, No Iterations 5
time step continuity errors : sum local = 0.00246347316689, global = 0.000198590259728, cumulative = 0.136670868973
smoothSolver:  Solving for epsilon, Initial residual = 0.00436573137831, Final residual = 7.90488949179e-05, No Iterations 4
smoothSolver:  Solving for k, Initial residual = 0.0126022862604, Final residual = 0.000326038328597, No Iterations 4
ExecutionTime = 5.27 s  ClockTime = 5 s

Time = 98

smoothSolver:  Solving for Ux, Initial residual = 0.00385371435383, Final residual = 8.5347141219e-05, No Iterations 4
smoothSolver:  Solving for Uy, Initial residual = 0.00712094323053, Final residual = 0.000183097834219, No Iterations 4
GAMG:  Solving for p, Initial residual = 0.0556351851619, Final residual = 0.000378745481181, No Iterations 5
time step continuity errors : sum local = 0.00281669911398, global = 0.000299892124397, cumulative = 0.136970761097
smoothSolver:  Solving for epsilon, Initial residual = 0.00437528035059, Final residual = 7.88803580388e-05, No Iterations 4
smoothSolver:  Solving for k, Initial residual = 0.0127192179046, Final residual = 0.000328654158136, No Iterations 4
ExecutionTime = 5.32 s  ClockTime = 5 s

Time = 99

smoothSolver:  Solving for Ux, Initial residual = 0.00380481254216, Final residual = 8.41523709402e-05, No Iterations 4
smoothSolver:  Solving for Uy, Initial residual = 0.00699026262825, Final residual = 0.000179451805906, No Iterations 4
GAMG:  Solving for p, Initial residual = 0.0465006279985, Final residual = 0.000408237033869, No Iterations 5
time step continuity errors : sum local = 0.00303273487494, global = 0.00039198589577, cumulative = 0.137362746993
smoothSolver:  Solving for epsilon, Initial residual = 0.0043415374762, Final residual = 7.85998779975e-05, No Iterations 4
smoothSolver:  Solving for k, Initial residual = 0.0127899787243, Final residual = 0.000331099596119, No Iterations 4
ExecutionTime = 5.36 s  ClockTime = 5 s

Time = 100

smoothSolver:  Solving for Ux, Initial residual = 0.00374777714157, Final residual = 8.29690315876e-05, No Iterations 4
smoothSolver:  Solving for Uy, Initial residual = 0.00685002777353, Final residual = 0.000175785297338, No Iterations 4
GAMG:  Solving for p, Initial residual = 0.0484798743032, Final residual = 0.000439631804068, No Iterations 5
time step continuity errors : sum local = 0.00325935313813, global = 0.000436781808034, cumulative = 0.137799528801
smoothSolver:  Solving for epsilon, Initial residual = 0.00435998524522, Final residual = 7.85056296438e-05, No Iterations 4
smoothSolver:  Solving for k, Initial residual = 0.0128959905513, Final residual = 0.000333765139923, No Iterations 4
ExecutionTime = 5.51 s  ClockTime = 5 s

Time = 101

smoothSolver:  Solving for Ux, Initial residual = 0.00369376154044, Final residual = 8.17905190527e-05, No Iterations 4
smoothSolver:  Solving for Uy, Initial residual = 0.00673431680749, Final residual = 0.000172471713465, No Iterations 4
GAMG:  Solving for p, Initial residual = 0.0445335006335, Final residual = 0.000423399961876, No Iterations 6
time step continuity errors : sum local = 0.00312133638332, global = -0.000362858239879, cumulative = 0.137436670561
smoothSolver:  Solving for epsilon, Initial residual = 0.00435136086824, Final residual = 7.8232741494e-05, No Iterations 4
smoothSolver:  Solving for k, Initial residual = 0.0129727271274, Final residual = 0.000336373878895, No Iterations 4
ExecutionTime = 5.55 s  ClockTime = 5 s

Time = 102

smoothSolver:  Solving for Ux, Initial residual = 0.00364116217735, Final residual = 8.06028230401e-05, No Iterations 4
smoothSolver:  Solving for Uy, Initial residual = 0.0066292912492, Final residual = 0.000169362871205, No Iterations 4
GAMG:  Solving for p, Initial residual = 0.0459658522279, Final residual = 0.000456552367578, No Iterations 5
time step continuity errors : sum local = 0.00335094628102, global = 0.000534673936579, cumulative = 0.137971344498
smoothSolver:  Solving for epsilon, Initial residual = 0.00433679247522, Final residual = 7.80397996229e-05, No Iterations 4
smoothSolver:  Solving for k, Initial residual = 0.0130503222713, Final residual = 0.000339046666025, No Iterations 4
ExecutionTime = 5.58 s  ClockTime = 5 s

Time = 103

smoothSolver:  Solving for Ux, Initial residual = 0.00358909041453, Final residual = 7.94595921835e-05, No Iterations 4
smoothSolver:  Solving for Uy, Initial residual = 0.00652922957184, Final residual = 0.000166523869899, No Iterations 4
GAMG:  Solving for p, Initial residual = 0.0480871292051, Final residual = 0.000450599087768, No Iterations 5
time step continuity errors : sum local = 0.00330409010741, global = 0.000547253469657, cumulative = 0.138518597967
smoothSolver:  Solving for epsilon, Initial residual = 0.00439352787014, Final residual = 7.8132325302e-05, No Iterations 4
smoothSolver:  Solving for k, Initial residual = 0.013178098179, Final residual = 0.000341793276842, No Iterations 4
ExecutionTime = 5.63 s  ClockTime = 6 s

Time = 104

smoothSolver:  Solving for Ux, Initial residual = 0.00353928945338, Final residual = 7.83361141204e-05, No Iterations 4
smoothSolver:  Solving for Uy, Initial residual = 0.00642861666322, Final residual = 0.000163672864594, No Iterations 4
GAMG:  Solving for p, Initial residual = 0.0467505956332, Final residual = 0.000466704236735, No Iterations 5
[...]
smoothSolver:  Solving for Uy, Initial residual = 1.92584304879e-05, Final residual = 1.74697961251e-06, No Iterations 2
GAMG:  Solving for p, Initial residual = 0.00555904551119, Final residual = 2.34427415531e-05, No Iterations 4
time step continuity errors : sum local = 0.000163680714102, global = 3.93676042968e-06, cumulative = 0.147072649729
smoothSolver:  Solving for epsilon, Initial residual = 1.55961050281e-05, Final residual = 4.22613773312e-07, No Iterations 2
smoothSolver:  Solving for k, Initial residual = 3.41814841311e-05, Final residual = 1.98315183096e-06, No Iterations 2
ExecutionTime = 128.92 s  ClockTime = 132 s

Time = 2976

smoothSolver:  Solving for Ux, Initial residual = 3.49644447141e-06, Final residual = 2.01118205134e-07, No Iterations 2
smoothSolver:  Solving for Uy, Initial residual = 8.46306897671e-06, Final residual = 6.39448741862e-07, No Iterations 2
GAMG:  Solving for p, Initial residual = 0.00404437434052, Final residual = 3.61958861699e-05, No Iterations 4
time step continuity errors : sum local = 0.000253141670708, global = 3.9478504478e-06, cumulative = 0.14707659758
smoothSolver:  Solving for epsilon, Initial residual = 1.37206142304e-05, Final residual = 2.49996031067e-07, No Iterations 2
smoothSolver:  Solving for k, Initial residual = 3.2589617266e-05, Final residual = 8.24402442274e-07, No Iterations 2
ExecutionTime = 128.96 s  ClockTime = 132 s

Time = 2977

smoothSolver:  Solving for Ux, Initial residual = 5.30244847983e-06, Final residual = 3.72834909067e-07, No Iterations 2
smoothSolver:  Solving for Uy, Initial residual = 1.45255368428e-05, Final residual = 9.19514073943e-07, No Iterations 2
GAMG:  Solving for p, Initial residual = 0.00646335429292, Final residual = 3.28626046573e-05, No Iterations 4
time step continuity errors : sum local = 0.000229183613856, global = -4.64889440407e-06, cumulative = 0.147071948685
smoothSolver:  Solving for epsilon, Initial residual = 2.0096143668e-05, Final residual = 4.28029018136e-07, No Iterations 2
smoothSolver:  Solving for k, Initial residual = 3.00648400596e-05, Final residual = 1.50411636109e-06, No Iterations 2
ExecutionTime = 129 s  ClockTime = 132 s

Time = 2978

smoothSolver:  Solving for Ux, Initial residual = 6.48607650405e-06, Final residual = 4.16250647543e-07, No Iterations 2
smoothSolver:  Solving for Uy, Initial residual = 1.42164645873e-05, Final residual = 1.05467104685e-06, No Iterations 2
GAMG:  Solving for p, Initial residual = 0.00462654994301, Final residual = 4.29520671461e-05, No Iterations 4
time step continuity errors : sum local = 0.000299789146069, global = 2.25516156765e-07, cumulative = 0.147072174202
smoothSolver:  Solving for epsilon, Initial residual = 1.46896272342e-05, Final residual = 4.69115936426e-07, No Iterations 2
smoothSolver:  Solving for k, Initial residual = 3.4909083526e-05, Final residual = 2.02503727368e-06, No Iterations 2
ExecutionTime = 129.03 s  ClockTime = 132 s

Time = 2979

smoothSolver:  Solving for Ux, Initial residual = 6.32767747173e-06, Final residual = 5.21259643536e-07, No Iterations 2
smoothSolver:  Solving for Uy, Initial residual = 1.47002244217e-05, Final residual = 1.46504586426e-06, No Iterations 2
GAMG:  Solving for p, Initial residual = 0.00419466475683, Final residual = 2.6624025513e-05, No Iterations 4
time step continuity errors : sum local = 0.000186203635689, global = -3.4784719804e-06, cumulative = 0.14706869573
smoothSolver:  Solving for epsilon, Initial residual = 1.1792354276e-05, Final residual = 2.09515628285e-07, No Iterations 2
smoothSolver:  Solving for k, Initial residual = 3.02722655687e-05, Final residual = 5.2115734078e-07, No Iterations 2
ExecutionTime = 129.08 s  ClockTime = 132 s

Time = 2980

smoothSolver:  Solving for Ux, Initial residual = 3.56177623695e-06, Final residual = 2.4021833346e-07, No Iterations 2
smoothSolver:  Solving for Uy, Initial residual = 1.05192147871e-05, Final residual = 7.18366442202e-07, No Iterations 2
GAMG:  Solving for p, Initial residual = 0.005416662161, Final residual = 5.31949367375e-05, No Iterations 3
time step continuity errors : sum local = 0.000371179313483, global = 2.40286224937e-06, cumulative = 0.147071098592
smoothSolver:  Solving for epsilon, Initial residual = 1.79236379894e-05, Final residual = 4.05869078157e-07, No Iterations 2
smoothSolver:  Solving for k, Initial residual = 2.90938045929e-05, Final residual = 1.67534573507e-06, No Iterations 2
ExecutionTime = 129.12 s  ClockTime = 132 s

Time = 2981

smoothSolver:  Solving for Ux, Initial residual = 7.8054741831e-06, Final residual = 4.99783709692e-07, No Iterations 2
smoothSolver:  Solving for Uy, Initial residual = 1.86704263978e-05, Final residual = 1.46431541758e-06, No Iterations 2
GAMG:  Solving for p, Initial residual = 0.00545708737196, Final residual = 2.614534825e-05, No Iterations 4
time step continuity errors : sum local = 0.000182273408637, global = 2.4588058338e-08, cumulative = 0.14707112318
smoothSolver:  Solving for epsilon, Initial residual = 1.90848333705e-05, Final residual = 5.04013361152e-07, No Iterations 2
smoothSolver:  Solving for k, Initial residual = 3.66677851254e-05, Final residual = 2.13788062618e-06, No Iterations 2
ExecutionTime = 129.16 s  ClockTime = 132 s

Time = 2982

smoothSolver:  Solving for Ux, Initial residual = 4.65732545069e-06, Final residual = 2.95235447125e-07, No Iterations 2
smoothSolver:  Solving for Uy, Initial residual = 1.22236489924e-05, Final residual = 8.94203926614e-07, No Iterations 2
GAMG:  Solving for p, Initial residual = 0.00400395776937, Final residual = 3.26310968723e-05, No Iterations 4
time step continuity errors : sum local = 0.000228254081858, global = 8.53421609458e-07, cumulative = 0.147071976601
smoothSolver:  Solving for epsilon, Initial residual = 1.1578358884e-05, Final residual = 1.69408160139e-07, No Iterations 2
smoothSolver:  Solving for k, Initial residual = 3.21188630263e-05, Final residual = 4.648574202e-07, No Iterations 2
ExecutionTime = 129.19 s  ClockTime = 132 s

Time = 2983

smoothSolver:  Solving for Ux, Initial residual = 4.07353152524e-06, Final residual = 2.74887620468e-07, No Iterations 2
smoothSolver:  Solving for Uy, Initial residual = 1.13949170395e-05, Final residual = 7.13453144043e-07, No Iterations 2
GAMG:  Solving for p, Initial residual = 0.00579493319391, Final residual = 4.26269064387e-05, No Iterations 3
time step continuity errors : sum local = 0.000297506115975, global = -2.53772012506e-06, cumulative = 0.147069438881
smoothSolver:  Solving for epsilon, Initial residual = 1.66971108883e-05, Final residual = 3.04891314199e-07, No Iterations 2
smoothSolver:  Solving for k, Initial residual = 2.95714261133e-05, Final residual = 1.05989329215e-06, No Iterations 2
ExecutionTime = 129.23 s  ClockTime = 132 s

Time = 2984

smoothSolver:  Solving for Ux, Initial residual = 6.24130889271e-06, Final residual = 3.68860801805e-07, No Iterations 2
smoothSolver:  Solving for Uy, Initial residual = 1.37912432515e-05, Final residual = 1.03887205984e-06, No Iterations 2
GAMG:  Solving for p, Initial residual = 0.00525421766803, Final residual = 4.1509837221e-05, No Iterations 4
time step continuity errors : sum local = 0.000289738494589, global = 7.60863678427e-07, cumulative = 0.147070199745
smoothSolver:  Solving for epsilon, Initial residual = 1.48643980206e-05, Final residual = 2.76509712641e-07, No Iterations 2
smoothSolver:  Solving for k, Initial residual = 3.25298735082e-05, Final residual = 1.61222692498e-06, No Iterations 2
ExecutionTime = 129.28 s  ClockTime = 132 s

Time = 2985

smoothSolver:  Solving for Ux, Initial residual = 5.43378354333e-06, Final residual = 3.28749390868e-07, No Iterations 2
smoothSolver:  Solving for Uy, Initial residual = 1.47198035004e-05, Final residual = 9.98657788415e-07, No Iterations 2
GAMG:  Solving for p, Initial residual = 0.0051684251228, Final residual = 3.0426244499e-05, No Iterations 3
time step continuity errors : sum local = 0.000212395742964, global = -1.53490555044e-06, cumulative = 0.147068664839
smoothSolver:  Solving for epsilon, Initial residual = 1.59974770199e-05, Final residual = 1.73003195453e-07, No Iterations 2
smoothSolver:  Solving for k, Initial residual = 3.14715634468e-05, Final residual = 7.98185816026e-07, No Iterations 2
ExecutionTime = 129.32 s  ClockTime = 132 s

Time = 2986

smoothSolver:  Solving for Ux, Initial residual = 4.25032057744e-06, Final residual = 2.50868431793e-07, No Iterations 2
smoothSolver:  Solving for Uy, Initial residual = 1.32130255608e-05, Final residual = 7.85438508239e-07, No Iterations 2
GAMG:  Solving for p, Initial residual = 0.00620250733635, Final residual = 5.07534438867e-05, No Iterations 3
time step continuity errors : sum local = 0.000354470705752, global = 9.75983098216e-07, cumulative = 0.147069640823
smoothSolver:  Solving for epsilon, Initial residual = 1.8684702513e-05, Final residual = 2.96546363059e-07, No Iterations 2
smoothSolver:  Solving for k, Initial residual = 3.48358858661e-05, Final residual = 1.25191718613e-06, No Iterations 2
ExecutionTime = 129.35 s  ClockTime = 132 s

Time = 2987

smoothSolver:  Solving for Ux, Initial residual = 5.4785711653e-06, Final residual = 2.86214756617e-07, No Iterations 2
smoothSolver:  Solving for Uy, Initial residual = 1.50440445235e-05, Final residual = 7.12513248016e-07, No Iterations 2
GAMG:  Solving for p, Initial residual = 0.00591739744947, Final residual = 4.05298822781e-05, No Iterations 3
time step continuity errors : sum local = 0.000283341472501, global = 3.01760892256e-06, cumulative = 0.147072658431
smoothSolver:  Solving for epsilon, Initial residual = 1.31746383885e-05, Final residual = 2.38410176503e-07, No Iterations 2
smoothSolver:  Solving for k, Initial residual = 2.91101399635e-05, Final residual = 1.11872496516e-06, No Iterations 2
ExecutionTime = 129.4 s  ClockTime = 132 s

Time = 2988

smoothSolver:  Solving for Ux, Initial residual = 4.00349680411e-06, Final residual = 2.37953802686e-07, No Iterations 2
smoothSolver:  Solving for Uy, Initial residual = 1.03226255907e-05, Final residual = 6.57185678375e-07, No Iterations 2
GAMG:  Solving for p, Initial residual = 0.00395771474226, Final residual = 2.68995201837e-05, No Iterations 4
time step continuity errors : sum local = 0.000187839756581, global = -5.18564086926e-06, cumulative = 0.147067472791
smoothSolver:  Solving for epsilon, Initial residual = 1.52796795285e-05, Final residual = 2.23124188646e-07, No Iterations 2
smoothSolver:  Solving for k, Initial residual = 3.43674542956e-05, Final residual = 1.26624239799e-06, No Iterations 2
ExecutionTime = 129.43 s  ClockTime = 132 s

Time = 2989

smoothSolver:  Solving for Ux, Initial residual = 4.86164074708e-06, Final residual = 3.06567720112e-07, No Iterations 2
smoothSolver:  Solving for Uy, Initial residual = 1.3549284917e-05, Final residual = 8.3069637387e-07, No Iterations 2
GAMG:  Solving for p, Initial residual = 0.00649354119957, Final residual = 3.19157017959e-05, No Iterations 4
time step continuity errors : sum local = 0.00022285976963, global = -3.84536034976e-07, cumulative = 0.147067088255
smoothSolver:  Solving for epsilon, Initial residual = 2.00500657476e-05, Final residual = 3.64596758543e-07, No Iterations 2
smoothSolver:  Solving for k, Initial residual = 2.81327671668e-05, Final residual = 1.31177390528e-06, No Iterations 2
ExecutionTime = 129.47 s  ClockTime = 132 s

Time = 2990

smoothSolver:  Solving for Ux, Initial residual = 6.4322790647e-06, Final residual = 3.85409686532e-07, No Iterations 2
smoothSolver:  Solving for Uy, Initial residual = 1.51617007683e-05, Final residual = 1.19479747393e-06, No Iterations 2
GAMG:  Solving for p, Initial residual = 0.00402666833773, Final residual = 2.37430217625e-05, No Iterations 4
time step continuity errors : sum local = 0.000165585221626, global = -2.59967594033e-06, cumulative = 0.147064488579
smoothSolver:  Solving for epsilon, Initial residual = 1.34239227123e-05, Final residual = 4.33035917269e-07, No Iterations 2
smoothSolver:  Solving for k, Initial residual = 3.41758962319e-05, Final residual = 1.98533774739e-06, No Iterations 2
ExecutionTime = 129.51 s  ClockTime = 132 s

Time = 2991

smoothSolver:  Solving for Ux, Initial residual = 3.86027466753e-06, Final residual = 2.49492307029e-07, No Iterations 2
smoothSolver:  Solving for Uy, Initial residual = 8.7731941204e-06, Final residual = 6.18651406636e-07, No Iterations 2
GAMG:  Solving for p, Initial residual = 0.00408371298568, Final residual = 3.42145901088e-05, No Iterations 4
time step continuity errors : sum local = 0.000239145806278, global = -3.28834997549e-06, cumulative = 0.147061200229
smoothSolver:  Solving for epsilon, Initial residual = 1.30223706029e-05, Final residual = 2.448897511e-07, No Iterations 2
smoothSolver:  Solving for k, Initial residual = 2.82836739442e-05, Final residual = 6.48608782464e-07, No Iterations 2
ExecutionTime = 129.56 s  ClockTime = 132 s

Time = 2992

smoothSolver:  Solving for Ux, Initial residual = 4.49937899143e-06, Final residual = 3.02387306648e-07, No Iterations 2
smoothSolver:  Solving for Uy, Initial residual = 1.2772289374e-05, Final residual = 8.48032226387e-07, No Iterations 2
GAMG:  Solving for p, Initial residual = 0.0061118259361, Final residual = 4.48093518389e-05, No Iterations 3
time step continuity errors : sum local = 0.000312729763043, global = -3.23511337021e-06, cumulative = 0.147057965115
smoothSolver:  Solving for epsilon, Initial residual = 1.98480061887e-05, Final residual = 2.68773309946e-07, No Iterations 2
smoothSolver:  Solving for k, Initial residual = 3.48520727211e-05, Final residual = 1.09058279357e-06, No Iterations 2
ExecutionTime = 129.59 s  ClockTime = 132 s

Time = 2993

smoothSolver:  Solving for Ux, Initial residual = 5.92795710141e-06, Final residual = 2.51991142749e-07, No Iterations 2
smoothSolver:  Solving for Uy, Initial residual = 1.71022045281e-05, Final residual = 7.92023233116e-07, No Iterations 2
GAMG:  Solving for p, Initial residual = 0.00711966909027, Final residual = 5.19897680644e-05, No Iterations 4
time step continuity errors : sum local = 0.000363177607132, global = 2.07450815918e-06, cumulative = 0.147060039623
smoothSolver:  Solving for epsilon, Initial residual = 1.68399263482e-05, Final residual = 2.19161638408e-07, No Iterations 2
smoothSolver:  Solving for k, Initial residual = 3.13356533972e-05, Final residual = 1.28455623257e-06, No Iterations 2
ExecutionTime = 129.63 s  ClockTime = 132 s

Time = 2994

smoothSolver:  Solving for Ux, Initial residual = 5.70799930701e-06, Final residual = 4.18962820212e-07, No Iterations 2
smoothSolver:  Solving for Uy, Initial residual = 1.62956184315e-05, Final residual = 1.23723671983e-06, No Iterations 2
GAMG:  Solving for p, Initial residual = 0.00397090773064, Final residual = 3.59533196598e-05, No Iterations 3
time step continuity errors : sum local = 0.000251170122497, global = 2.04107481407e-06, cumulative = 0.147062080698
smoothSolver:  Solving for epsilon, Initial residual = 1.27003093908e-05, Final residual = 2.05256224619e-07, No Iterations 2
smoothSolver:  Solving for k, Initial residual = 3.32512938465e-05, Final residual = 1.20985233157e-06, No Iterations 2
ExecutionTime = 129.67 s  ClockTime = 132 s

Time = 2995

smoothSolver:  Solving for Ux, Initial residual = 4.37135829316e-06, Final residual = 2.95030772427e-07, No Iterations 2
smoothSolver:  Solving for Uy, Initial residual = 1.23093222322e-05, Final residual = 9.8305854995e-07, No Iterations 2
GAMG:  Solving for p, Initial residual = 0.0051871831056, Final residual = 2.92413358223e-05, No Iterations 4
time step continuity errors : sum local = 0.000204270825039, global = 1.55143110574e-06, cumulative = 0.147063632129
smoothSolver:  Solving for epsilon, Initial residual = 1.80266313987e-05, Final residual = 4.11814775229e-07, No Iterations 2
smoothSolver:  Solving for k, Initial residual = 3.0304052695e-05, Final residual = 1.54576523318e-06, No Iterations 2
ExecutionTime = 129.72 s  ClockTime = 132 s

Time = 2996

smoothSolver:  Solving for Ux, Initial residual = 7.41777026374e-06, Final residual = 4.36700567019e-07, No Iterations 2
smoothSolver:  Solving for Uy, Initial residual = 1.46902108623e-05, Final residual = 1.30684290966e-06, No Iterations 2
GAMG:  Solving for p, Initial residual = 0.00598819798304, Final residual = 5.79395856768e-05, No Iterations 3
time step continuity errors : sum local = 0.00040408635988, global = 3.39392964682e-06, cumulative = 0.147067026059
smoothSolver:  Solving for epsilon, Initial residual = 2.03011718768e-05, Final residual = 5.77543388937e-07, No Iterations 2
smoothSolver:  Solving for k, Initial residual = 4.25187079335e-05, Final residual = 2.35718409997e-06, No Iterations 2
ExecutionTime = 129.75 s  ClockTime = 132 s

Time = 2997

smoothSolver:  Solving for Ux, Initial residual = 4.90664724248e-06, Final residual = 2.13842955212e-07, No Iterations 2
smoothSolver:  Solving for Uy, Initial residual = 1.34421608649e-05, Final residual = 7.80434637962e-07, No Iterations 2
GAMG:  Solving for p, Initial residual = 0.00630703756203, Final residual = 4.96499218914e-05, No Iterations 3
time step continuity errors : sum local = 0.000346971563607, global = -8.42808929549e-07, cumulative = 0.14706618325
smoothSolver:  Solving for epsilon, Initial residual = 1.72514549338e-05, Final residual = 2.04226631241e-07, No Iterations 2
smoothSolver:  Solving for k, Initial residual = 4.10814103758e-05, Final residual = 5.89726231262e-07, No Iterations 2
ExecutionTime = 129.79 s  ClockTime = 132 s

Time = 2998

smoothSolver:  Solving for Ux, Initial residual = 5.01146341743e-06, Final residual = 3.54036893774e-07, No Iterations 2
smoothSolver:  Solving for Uy, Initial residual = 1.52784029757e-05, Final residual = 9.69179751355e-07, No Iterations 2
GAMG:  Solving for p, Initial residual = 0.00653361381469, Final residual = 5.60159626758e-05, No Iterations 3
time step continuity errors : sum local = 0.000391047551496, global = -1.69926218575e-06, cumulative = 0.147064483988
smoothSolver:  Solving for epsilon, Initial residual = 1.71891409444e-05, Final residual = 4.260097752e-07, No Iterations 2
smoothSolver:  Solving for k, Initial residual = 3.24277539052e-05, Final residual = 1.4279334181e-06, No Iterations 2
ExecutionTime = 129.84 s  ClockTime = 132 s

Time = 2999

smoothSolver:  Solving for Ux, Initial residual = 7.06817199928e-06, Final residual = 4.57557178148e-07, No Iterations 2
smoothSolver:  Solving for Uy, Initial residual = 1.76477598377e-05, Final residual = 1.5409705475e-06, No Iterations 2
GAMG:  Solving for p, Initial residual = 0.00557334964353, Final residual = 2.98135341882e-05, No Iterations 4
time step continuity errors : sum local = 0.000208199787323, global = -1.07362173913e-07, cumulative = 0.147064376626
smoothSolver:  Solving for epsilon, Initial residual = 1.58504548718e-05, Final residual = 4.29514478009e-07, No Iterations 2
smoothSolver:  Solving for k, Initial residual = 3.46526153764e-05, Final residual = 2.07325061404e-06, No Iterations 2
ExecutionTime = 129.88 s  ClockTime = 132 s

Time = 3000

smoothSolver:  Solving for Ux, Initial residual = 4.78819658308e-06, Final residual = 3.45336149511e-07, No Iterations 2
smoothSolver:  Solving for Uy, Initial residual = 1.10010376467e-05, Final residual = 9.32790242562e-07, No Iterations 2
GAMG:  Solving for p, Initial residual = 0.00409505746486, Final residual = 2.72731882379e-05, No Iterations 4
time step continuity errors : sum local = 0.000190769828217, global = -6.99245383962e-07, cumulative = 0.14706367738
smoothSolver:  Solving for epsilon, Initial residual = 1.37977975235e-05, Final residual = 2.49059769792e-07, No Iterations 2
smoothSolver:  Solving for k, Initial residual = 3.28082334836e-05, Final residual = 8.80838644219e-07, No Iterations 2
ExecutionTime = 130.02 s  ClockTime = 133 s

End

