/*---------------------------------------------------------------------------*\
| =========                 |                                                 |
| \\      /  F ield         | OpenFOAM: The Open Source CFD Toolbox           |
|  \\    /   O peration     | Version:  5.x                                   |
|   \\  /    A nd           | Web:      www.OpenFOAM.org                      |
|    \\/     M anipulation  |                                                 |
\*---------------------------------------------------------------------------*/
Build  : 5.x-7f7d351b741b
Exec   : /secamfs/userspace/staff/gad212/OpenFOAM/OpenFOAM-5.x/platforms/linux64GccDPInt64Opt/bin/checkMesh -case Exeter_CFD_Problems/data/PitzDaily/case_single/
Date   : Aug 09 2019
Time   : 14:32:27
Host   : "ennui"
PID    : 22203
I/O    : uncollated
Case   : Exeter_CFD_Problems/data/PitzDaily/case_single
nProcs : 1
sigFpe : Enabling floating point exception trapping (FOAM_SIGFPE).
fileModificationChecking : Monitoring run-time modified files using timeStampMaster (fileModificationSkew 10)
allowSystemOperations : Allowing user-supplied system call operations

// * * * * * * * * * * * * * * * * * * * * * * * * * * * * * * * * * * * * * //
Create time

Create polyMesh for time = 0

Time = 0

Mesh stats
    points:           25012
    internal points:  0
    faces:            49180
    internal faces:   24170
    cells:            12225
    faces per cell:   6
    boundary patches: 5
    point zones:      0
    face zones:       0
    cell zones:       0

Overall number of cells of each type:
    hexahedra:     12225
    prisms:        0
    wedges:        0
    pyramids:      0
    tet wedges:    0
    tetrahedra:    0
    polyhedra:     0

Checking topology...
    Boundary definition OK.
    Cell to face addressing OK.
    Point usage OK.
    Upper triangular ordering OK.
    Face vertices OK.
    Number of regions: 1 (OK).

Checking patch topology for multiply connected surfaces...
    Patch               Faces    Points   Surface topology
    inlet               30       62       ok (non-closed singly connected)
    outlet              57       116      ok (non-closed singly connected)
    upperWall           223      448      ok (non-closed singly connected)
    lowerWall           250      502      ok (non-closed singly connected)
    frontAndBack        24450    25012    ok (non-closed singly connected)

Checking geometry...
    Overall domain bounding box (-0.0206 -0.0254 -0.0005) (0.29 0.0254 0.0005)
    Mesh has 2 geometric (non-empty/wedge) directions (1 1 0)
    Mesh has 2 solution (non-empty) directions (1 1 0)
    All edges aligned with or perpendicular to non-empty directions.
    Boundary openness (-1.03250852334e-19 1.99380956231e-19 1.49111320566e-15) OK.
    Max cell openness = 2.19804420022e-16 OK.
    Max aspect ratio = 7.74923046339 OK.
    Minimum face area = 1.6597752668e-07. Maximum face area = 5.14450908684e-06.  Face area magnitudes OK.
    Min volume = 1.6597752668e-10. Max volume = 4.08300752967e-09.  Total volume = 1.451604e-05.  Cell volumes OK.
    Mesh non-orthogonality Max: 5.94745191736 average: 1.41505125662
    Non-orthogonality check OK.
    Face pyramids OK.
    Max skewness = 0.26044263947 OK.
    Coupled point location match (average 0) OK.

Mesh OK.

End

